version 2
run Default-0-20201028-21:38:24-4164
attr configname Default
attr datetime 20201028-21:38:24
attr experiment Default
attr inifile omnetpp.ini
attr iterationvars ""
attr iterationvarsf ""
attr measurement ""
attr network RSUExampleScenario
attr processid 4164
attr repetition 0
attr replication #0
attr resultdir results
attr runnumber 0
attr seedset 0
param *.playgroundSizeX 2500m
param *.playgroundSizeY 2500m
param *.playgroundSizeZ 50m
param *.annotations.draw true
param *.manager.updateInterval 1s
param *.manager.host "\"localhost\""
param *.manager.port 9999
param *.manager.autoShutdown true
param *.manager.launchConfig "xmldoc(\"erlangen.launchd.xml\")"
param *.rsu[0].mobility.x 2000
param *.rsu[0].mobility.y 2000
param *.rsu[0].mobility.z 3
param *.rsu[*].applType "\"TraCIDemoRSU11p\""
param *.rsu[*].appl.headerLength "80 bit"
param *.rsu[*].appl.sendBeacons false
param *.rsu[*].appl.dataOnSch false
param *.rsu[*].appl.beaconInterval 1s
param *.rsu[*].appl.beaconUserPriority 7
param *.rsu[*].appl.dataUserPriority 5
param *.rsu[*].nic.phy80211p.antennaOffsetZ "0 m"
param *.connectionManager.sendDirect true
param *.connectionManager.maxInterfDist 2600m
param *.connectionManager.drawMaxIntfDist false
param *.**.nic.mac1609_4.useServiceChannel false
param *.**.nic.mac1609_4.txPower 20mW
param *.**.nic.mac1609_4.bitrate 6Mbps
param *.**.nic.phy80211p.minPowerLevel -110dBm
param *.**.nic.phy80211p.useNoiseFloor true
param *.**.nic.phy80211p.noiseFloor -98dBm
param *.**.nic.phy80211p.decider "xmldoc(\"config.xml\")"
param *.**.nic.phy80211p.analogueModels "xmldoc(\"config.xml\")"
param *.**.nic.phy80211p.usePropagationDelay true
param *.**.nic.phy80211p.antenna "xmldoc(\"antenna.xml\", \"/root/Antenna[@id='monopole']\")"
param *.node[*].nic.phy80211p.antennaOffsetY "0 m"
param *.node[*].nic.phy80211p.antennaOffsetZ "1.895 m"
param *.node[*].applType "\"TraCIDemo11p\""
param *.node[*].appl.headerLength "80 bit"
param *.node[*].appl.sendBeacons false
param *.node[*].appl.dataOnSch false
param *.node[*].appl.beaconInterval 1s
param *.node[*].veinsmobility.x 0
param *.node[*].veinsmobility.y 0
param *.node[*].veinsmobility.z 0
param *.node[*].veinsmobility.setHostSpeed false
param *.node[*0].veinsmobility.accidentCount 0
param *.node[*0].veinsmobility.accidentStart 73s
param *.node[*0].veinsmobility.accidentDuration 50s

scalar RSUExampleScenario.node[1].appl generatedWSMs 0
scalar RSUExampleScenario.node[1].appl receivedWSMs 0
scalar RSUExampleScenario.node[1].appl generatedBSMs 0
scalar RSUExampleScenario.node[1].appl receivedBSMs 0
scalar RSUExampleScenario.node[1].appl generatedWSAs 0
scalar RSUExampleScenario.node[1].appl receivedWSAs 0
scalar RSUExampleScenario.node[1].nic.phy80211p busyTime 0
scalar RSUExampleScenario.node[1].nic.mac1609_4 ReceivedUnicastPackets 0
scalar RSUExampleScenario.node[1].nic.mac1609_4 ReceivedBroadcasts 0
scalar RSUExampleScenario.node[1].nic.mac1609_4 SentPackets 0
scalar RSUExampleScenario.node[1].nic.mac1609_4 SentAcknowledgements 0
scalar RSUExampleScenario.node[1].nic.mac1609_4 SNIRLostPackets 0
scalar RSUExampleScenario.node[1].nic.mac1609_4 RXTXLostPackets 0
scalar RSUExampleScenario.node[1].nic.mac1609_4 TotalLostPackets 0
scalar RSUExampleScenario.node[1].nic.mac1609_4 DroppedPacketsInMac 0
scalar RSUExampleScenario.node[1].nic.mac1609_4 TooLittleTime 0
scalar RSUExampleScenario.node[1].nic.mac1609_4 TimesIntoBackoff 0
scalar RSUExampleScenario.node[1].nic.mac1609_4 SlotsBackoff 0
scalar RSUExampleScenario.node[1].nic.mac1609_4 NumInternalContention 0
scalar RSUExampleScenario.node[1].nic.mac1609_4 totalBusyTime 0
scalar RSUExampleScenario.node[1].veinsmobility startTime 1
scalar RSUExampleScenario.node[1].veinsmobility totalTime 18
scalar RSUExampleScenario.node[1].veinsmobility stopTime 20
scalar RSUExampleScenario.node[1].veinsmobility minSpeed 13.297515040414
scalar RSUExampleScenario.node[1].veinsmobility maxSpeed 14.553905366302
scalar RSUExampleScenario.node[1].veinsmobility totalDistance 249.30113086294
scalar RSUExampleScenario.node[1].veinsmobility totalCO2Emission 43.44376593837
scalar RSUExampleScenario.node[0].appl generatedWSMs 0
scalar RSUExampleScenario.node[0].appl receivedWSMs 0
scalar RSUExampleScenario.node[0].appl generatedBSMs 0
scalar RSUExampleScenario.node[0].appl receivedBSMs 0
scalar RSUExampleScenario.node[0].appl generatedWSAs 0
scalar RSUExampleScenario.node[0].appl receivedWSAs 0
scalar RSUExampleScenario.node[0].nic.phy80211p busyTime 0
scalar RSUExampleScenario.node[0].nic.mac1609_4 ReceivedUnicastPackets 0
scalar RSUExampleScenario.node[0].nic.mac1609_4 ReceivedBroadcasts 0
scalar RSUExampleScenario.node[0].nic.mac1609_4 SentPackets 0
scalar RSUExampleScenario.node[0].nic.mac1609_4 SentAcknowledgements 0
scalar RSUExampleScenario.node[0].nic.mac1609_4 SNIRLostPackets 0
scalar RSUExampleScenario.node[0].nic.mac1609_4 RXTXLostPackets 0
scalar RSUExampleScenario.node[0].nic.mac1609_4 TotalLostPackets 0
scalar RSUExampleScenario.node[0].nic.mac1609_4 DroppedPacketsInMac 0
scalar RSUExampleScenario.node[0].nic.mac1609_4 TooLittleTime 0
scalar RSUExampleScenario.node[0].nic.mac1609_4 TimesIntoBackoff 0
scalar RSUExampleScenario.node[0].nic.mac1609_4 SlotsBackoff 0
scalar RSUExampleScenario.node[0].nic.mac1609_4 NumInternalContention 0
scalar RSUExampleScenario.node[0].nic.mac1609_4 totalBusyTime 0
scalar RSUExampleScenario.node[0].veinsmobility startTime 1
scalar RSUExampleScenario.node[0].veinsmobility totalTime 23
scalar RSUExampleScenario.node[0].veinsmobility stopTime 25
scalar RSUExampleScenario.node[0].veinsmobility minSpeed 0.04970438699946
scalar RSUExampleScenario.node[0].veinsmobility maxSpeed 15.413573130217
scalar RSUExampleScenario.node[0].veinsmobility totalDistance 238.12243406375
scalar RSUExampleScenario.node[0].veinsmobility totalCO2Emission 67.215984207929
scalar RSUExampleScenario.node[2].appl generatedWSMs 0
scalar RSUExampleScenario.node[2].appl receivedWSMs 0
scalar RSUExampleScenario.node[2].appl generatedBSMs 0
scalar RSUExampleScenario.node[2].appl receivedBSMs 0
scalar RSUExampleScenario.node[2].appl generatedWSAs 0
scalar RSUExampleScenario.node[2].appl receivedWSAs 0
scalar RSUExampleScenario.node[2].nic.phy80211p busyTime 0
scalar RSUExampleScenario.node[2].nic.mac1609_4 ReceivedUnicastPackets 0
scalar RSUExampleScenario.node[2].nic.mac1609_4 ReceivedBroadcasts 0
scalar RSUExampleScenario.node[2].nic.mac1609_4 SentPackets 0
scalar RSUExampleScenario.node[2].nic.mac1609_4 SentAcknowledgements 0
scalar RSUExampleScenario.node[2].nic.mac1609_4 SNIRLostPackets 0
scalar RSUExampleScenario.node[2].nic.mac1609_4 RXTXLostPackets 0
scalar RSUExampleScenario.node[2].nic.mac1609_4 TotalLostPackets 0
scalar RSUExampleScenario.node[2].nic.mac1609_4 DroppedPacketsInMac 0
scalar RSUExampleScenario.node[2].nic.mac1609_4 TooLittleTime 0
scalar RSUExampleScenario.node[2].nic.mac1609_4 TimesIntoBackoff 0
scalar RSUExampleScenario.node[2].nic.mac1609_4 SlotsBackoff 0
scalar RSUExampleScenario.node[2].nic.mac1609_4 NumInternalContention 0
scalar RSUExampleScenario.node[2].nic.mac1609_4 totalBusyTime 0
scalar RSUExampleScenario.node[2].veinsmobility startTime 9
scalar RSUExampleScenario.node[2].veinsmobility totalTime 18
scalar RSUExampleScenario.node[2].veinsmobility stopTime 28
scalar RSUExampleScenario.node[2].veinsmobility minSpeed 13.250561641362
scalar RSUExampleScenario.node[2].veinsmobility maxSpeed 14.29938682173
scalar RSUExampleScenario.node[2].veinsmobility totalDistance 247.52020279862
scalar RSUExampleScenario.node[2].veinsmobility totalCO2Emission 36.13755803135
scalar RSUExampleScenario.node[4].appl generatedWSMs 0
scalar RSUExampleScenario.node[4].appl receivedWSMs 0
scalar RSUExampleScenario.node[4].appl generatedBSMs 0
scalar RSUExampleScenario.node[4].appl receivedBSMs 0
scalar RSUExampleScenario.node[4].appl generatedWSAs 0
scalar RSUExampleScenario.node[4].appl receivedWSAs 0
scalar RSUExampleScenario.node[4].nic.phy80211p busyTime 0
scalar RSUExampleScenario.node[4].nic.mac1609_4 ReceivedUnicastPackets 0
scalar RSUExampleScenario.node[4].nic.mac1609_4 ReceivedBroadcasts 0
scalar RSUExampleScenario.node[4].nic.mac1609_4 SentPackets 0
scalar RSUExampleScenario.node[4].nic.mac1609_4 SentAcknowledgements 0
scalar RSUExampleScenario.node[4].nic.mac1609_4 SNIRLostPackets 0
scalar RSUExampleScenario.node[4].nic.mac1609_4 RXTXLostPackets 0
scalar RSUExampleScenario.node[4].nic.mac1609_4 TotalLostPackets 0
scalar RSUExampleScenario.node[4].nic.mac1609_4 DroppedPacketsInMac 0
scalar RSUExampleScenario.node[4].nic.mac1609_4 TooLittleTime 0
scalar RSUExampleScenario.node[4].nic.mac1609_4 TimesIntoBackoff 0
scalar RSUExampleScenario.node[4].nic.mac1609_4 SlotsBackoff 0
scalar RSUExampleScenario.node[4].nic.mac1609_4 NumInternalContention 0
scalar RSUExampleScenario.node[4].nic.mac1609_4 totalBusyTime 0
scalar RSUExampleScenario.node[4].veinsmobility startTime 16
scalar RSUExampleScenario.node[4].veinsmobility totalTime 22
scalar RSUExampleScenario.node[4].veinsmobility stopTime 39
scalar RSUExampleScenario.node[4].veinsmobility minSpeed 11.022867243667
scalar RSUExampleScenario.node[4].veinsmobility maxSpeed 12.254834177345
scalar RSUExampleScenario.node[4].veinsmobility totalDistance 256.24921203738
scalar RSUExampleScenario.node[4].veinsmobility totalCO2Emission 43.681149230849
scalar RSUExampleScenario.node[5].appl generatedWSMs 0
scalar RSUExampleScenario.node[5].appl receivedWSMs 0
scalar RSUExampleScenario.node[5].appl generatedBSMs 0
scalar RSUExampleScenario.node[5].appl receivedBSMs 0
scalar RSUExampleScenario.node[5].appl generatedWSAs 0
scalar RSUExampleScenario.node[5].appl receivedWSAs 0
scalar RSUExampleScenario.node[5].nic.phy80211p busyTime 0
scalar RSUExampleScenario.node[5].nic.mac1609_4 ReceivedUnicastPackets 0
scalar RSUExampleScenario.node[5].nic.mac1609_4 ReceivedBroadcasts 0
scalar RSUExampleScenario.node[5].nic.mac1609_4 SentPackets 0
scalar RSUExampleScenario.node[5].nic.mac1609_4 SentAcknowledgements 0
scalar RSUExampleScenario.node[5].nic.mac1609_4 SNIRLostPackets 0
scalar RSUExampleScenario.node[5].nic.mac1609_4 RXTXLostPackets 0
scalar RSUExampleScenario.node[5].nic.mac1609_4 TotalLostPackets 0
scalar RSUExampleScenario.node[5].nic.mac1609_4 DroppedPacketsInMac 0
scalar RSUExampleScenario.node[5].nic.mac1609_4 TooLittleTime 0
scalar RSUExampleScenario.node[5].nic.mac1609_4 TimesIntoBackoff 0
scalar RSUExampleScenario.node[5].nic.mac1609_4 SlotsBackoff 0
scalar RSUExampleScenario.node[5].nic.mac1609_4 NumInternalContention 0
scalar RSUExampleScenario.node[5].nic.mac1609_4 totalBusyTime 0
scalar RSUExampleScenario.node[5].veinsmobility startTime 23
scalar RSUExampleScenario.node[5].veinsmobility totalTime 16
scalar RSUExampleScenario.node[5].veinsmobility stopTime 40
scalar RSUExampleScenario.node[5].veinsmobility minSpeed 12.910390902636
scalar RSUExampleScenario.node[5].veinsmobility maxSpeed 16.02942844094
scalar RSUExampleScenario.node[5].veinsmobility totalDistance 243.21640432402
scalar RSUExampleScenario.node[5].veinsmobility totalCO2Emission 36.128618197138
scalar RSUExampleScenario.node[3].appl generatedWSMs 0
scalar RSUExampleScenario.node[3].appl receivedWSMs 0
scalar RSUExampleScenario.node[3].appl generatedBSMs 0
scalar RSUExampleScenario.node[3].appl receivedBSMs 0
scalar RSUExampleScenario.node[3].appl generatedWSAs 0
scalar RSUExampleScenario.node[3].appl receivedWSAs 0
scalar RSUExampleScenario.node[3].nic.phy80211p busyTime 0
scalar RSUExampleScenario.node[3].nic.mac1609_4 ReceivedUnicastPackets 0
scalar RSUExampleScenario.node[3].nic.mac1609_4 ReceivedBroadcasts 0
scalar RSUExampleScenario.node[3].nic.mac1609_4 SentPackets 0
scalar RSUExampleScenario.node[3].nic.mac1609_4 SentAcknowledgements 0
scalar RSUExampleScenario.node[3].nic.mac1609_4 SNIRLostPackets 0
scalar RSUExampleScenario.node[3].nic.mac1609_4 RXTXLostPackets 0
scalar RSUExampleScenario.node[3].nic.mac1609_4 TotalLostPackets 0
scalar RSUExampleScenario.node[3].nic.mac1609_4 DroppedPacketsInMac 0
scalar RSUExampleScenario.node[3].nic.mac1609_4 TooLittleTime 0
scalar RSUExampleScenario.node[3].nic.mac1609_4 TimesIntoBackoff 0
scalar RSUExampleScenario.node[3].nic.mac1609_4 SlotsBackoff 0
scalar RSUExampleScenario.node[3].nic.mac1609_4 NumInternalContention 0
scalar RSUExampleScenario.node[3].nic.mac1609_4 totalBusyTime 0
scalar RSUExampleScenario.node[3].veinsmobility startTime 16
scalar RSUExampleScenario.node[3].veinsmobility totalTime 29
scalar RSUExampleScenario.node[3].veinsmobility stopTime 46
scalar RSUExampleScenario.node[3].veinsmobility minSpeed 0
scalar RSUExampleScenario.node[3].veinsmobility maxSpeed 14.078179851433
scalar RSUExampleScenario.node[3].veinsmobility totalDistance 245.47108788044
scalar RSUExampleScenario.node[3].veinsmobility totalCO2Emission 74.609333488204
scalar RSUExampleScenario.node[7].appl generatedWSMs 0
scalar RSUExampleScenario.node[7].appl receivedWSMs 0
scalar RSUExampleScenario.node[7].appl generatedBSMs 0
scalar RSUExampleScenario.node[7].appl receivedBSMs 0
scalar RSUExampleScenario.node[7].appl generatedWSAs 0
scalar RSUExampleScenario.node[7].appl receivedWSAs 0
scalar RSUExampleScenario.node[7].nic.phy80211p busyTime 0
scalar RSUExampleScenario.node[7].nic.mac1609_4 ReceivedUnicastPackets 0
scalar RSUExampleScenario.node[7].nic.mac1609_4 ReceivedBroadcasts 0
scalar RSUExampleScenario.node[7].nic.mac1609_4 SentPackets 0
scalar RSUExampleScenario.node[7].nic.mac1609_4 SentAcknowledgements 0
scalar RSUExampleScenario.node[7].nic.mac1609_4 SNIRLostPackets 0
scalar RSUExampleScenario.node[7].nic.mac1609_4 RXTXLostPackets 0
scalar RSUExampleScenario.node[7].nic.mac1609_4 TotalLostPackets 0
scalar RSUExampleScenario.node[7].nic.mac1609_4 DroppedPacketsInMac 0
scalar RSUExampleScenario.node[7].nic.mac1609_4 TooLittleTime 0
scalar RSUExampleScenario.node[7].nic.mac1609_4 TimesIntoBackoff 0
scalar RSUExampleScenario.node[7].nic.mac1609_4 SlotsBackoff 0
scalar RSUExampleScenario.node[7].nic.mac1609_4 NumInternalContention 0
scalar RSUExampleScenario.node[7].nic.mac1609_4 totalBusyTime 0
scalar RSUExampleScenario.node[7].veinsmobility startTime 30
scalar RSUExampleScenario.node[7].veinsmobility totalTime 25
scalar RSUExampleScenario.node[7].veinsmobility stopTime 56
scalar RSUExampleScenario.node[7].veinsmobility minSpeed 9.3575081069171
scalar RSUExampleScenario.node[7].veinsmobility maxSpeed 10.47737883431
scalar RSUExampleScenario.node[7].veinsmobility totalDistance 249.6285009569
scalar RSUExampleScenario.node[7].veinsmobility totalCO2Emission 46.547206463624
scalar RSUExampleScenario.node[8].appl generatedWSMs 0
scalar RSUExampleScenario.node[8].appl receivedWSMs 0
scalar RSUExampleScenario.node[8].appl generatedBSMs 0
scalar RSUExampleScenario.node[8].appl receivedBSMs 0
scalar RSUExampleScenario.node[8].appl generatedWSAs 0
scalar RSUExampleScenario.node[8].appl receivedWSAs 0
scalar RSUExampleScenario.node[8].nic.phy80211p busyTime 0
scalar RSUExampleScenario.node[8].nic.mac1609_4 ReceivedUnicastPackets 0
scalar RSUExampleScenario.node[8].nic.mac1609_4 ReceivedBroadcasts 0
scalar RSUExampleScenario.node[8].nic.mac1609_4 SentPackets 0
scalar RSUExampleScenario.node[8].nic.mac1609_4 SentAcknowledgements 0
scalar RSUExampleScenario.node[8].nic.mac1609_4 SNIRLostPackets 0
scalar RSUExampleScenario.node[8].nic.mac1609_4 RXTXLostPackets 0
scalar RSUExampleScenario.node[8].nic.mac1609_4 TotalLostPackets 0
scalar RSUExampleScenario.node[8].nic.mac1609_4 DroppedPacketsInMac 0
scalar RSUExampleScenario.node[8].nic.mac1609_4 TooLittleTime 0
scalar RSUExampleScenario.node[8].nic.mac1609_4 TimesIntoBackoff 0
scalar RSUExampleScenario.node[8].nic.mac1609_4 SlotsBackoff 0
scalar RSUExampleScenario.node[8].nic.mac1609_4 NumInternalContention 0
scalar RSUExampleScenario.node[8].nic.mac1609_4 totalBusyTime 0
scalar RSUExampleScenario.node[8].veinsmobility startTime 37
scalar RSUExampleScenario.node[8].veinsmobility totalTime 20
scalar RSUExampleScenario.node[8].veinsmobility stopTime 58
scalar RSUExampleScenario.node[8].veinsmobility minSpeed 10.012754617645
scalar RSUExampleScenario.node[8].veinsmobility maxSpeed 14.557187988424
scalar RSUExampleScenario.node[8].veinsmobility totalDistance 252.07269620466
scalar RSUExampleScenario.node[8].veinsmobility totalCO2Emission 40.056477623888
scalar RSUExampleScenario.node[6].appl generatedWSMs 0
scalar RSUExampleScenario.node[6].appl receivedWSMs 0
scalar RSUExampleScenario.node[6].appl generatedBSMs 0
scalar RSUExampleScenario.node[6].appl receivedBSMs 0
scalar RSUExampleScenario.node[6].appl generatedWSAs 0
scalar RSUExampleScenario.node[6].appl receivedWSAs 0
scalar RSUExampleScenario.node[6].nic.phy80211p busyTime 0
scalar RSUExampleScenario.node[6].nic.mac1609_4 ReceivedUnicastPackets 0
scalar RSUExampleScenario.node[6].nic.mac1609_4 ReceivedBroadcasts 0
scalar RSUExampleScenario.node[6].nic.mac1609_4 SentPackets 0
scalar RSUExampleScenario.node[6].nic.mac1609_4 SentAcknowledgements 0
scalar RSUExampleScenario.node[6].nic.mac1609_4 SNIRLostPackets 0
scalar RSUExampleScenario.node[6].nic.mac1609_4 RXTXLostPackets 0
scalar RSUExampleScenario.node[6].nic.mac1609_4 TotalLostPackets 0
scalar RSUExampleScenario.node[6].nic.mac1609_4 DroppedPacketsInMac 0
scalar RSUExampleScenario.node[6].nic.mac1609_4 TooLittleTime 0
scalar RSUExampleScenario.node[6].nic.mac1609_4 TimesIntoBackoff 0
scalar RSUExampleScenario.node[6].nic.mac1609_4 SlotsBackoff 0
scalar RSUExampleScenario.node[6].nic.mac1609_4 NumInternalContention 0
scalar RSUExampleScenario.node[6].nic.mac1609_4 totalBusyTime 0
scalar RSUExampleScenario.node[6].veinsmobility startTime 30
scalar RSUExampleScenario.node[6].veinsmobility totalTime 31
scalar RSUExampleScenario.node[6].veinsmobility stopTime 62
scalar RSUExampleScenario.node[6].veinsmobility minSpeed 0
scalar RSUExampleScenario.node[6].veinsmobility maxSpeed 13.070056006485
scalar RSUExampleScenario.node[6].veinsmobility totalDistance 238.91433924441
scalar RSUExampleScenario.node[6].veinsmobility totalCO2Emission 66.812041352895
scalar RSUExampleScenario.node[10].appl generatedWSMs 0
scalar RSUExampleScenario.node[10].appl receivedWSMs 0
scalar RSUExampleScenario.node[10].appl generatedBSMs 0
scalar RSUExampleScenario.node[10].appl receivedBSMs 0
scalar RSUExampleScenario.node[10].appl generatedWSAs 0
scalar RSUExampleScenario.node[10].appl receivedWSAs 0
scalar RSUExampleScenario.node[10].nic.phy80211p busyTime 0
scalar RSUExampleScenario.node[10].nic.mac1609_4 ReceivedUnicastPackets 0
scalar RSUExampleScenario.node[10].nic.mac1609_4 ReceivedBroadcasts 0
scalar RSUExampleScenario.node[10].nic.mac1609_4 SentPackets 0
scalar RSUExampleScenario.node[10].nic.mac1609_4 SentAcknowledgements 0
scalar RSUExampleScenario.node[10].nic.mac1609_4 SNIRLostPackets 0
scalar RSUExampleScenario.node[10].nic.mac1609_4 RXTXLostPackets 0
scalar RSUExampleScenario.node[10].nic.mac1609_4 TotalLostPackets 0
scalar RSUExampleScenario.node[10].nic.mac1609_4 DroppedPacketsInMac 0
scalar RSUExampleScenario.node[10].nic.mac1609_4 TooLittleTime 0
scalar RSUExampleScenario.node[10].nic.mac1609_4 TimesIntoBackoff 0
scalar RSUExampleScenario.node[10].nic.mac1609_4 SlotsBackoff 0
scalar RSUExampleScenario.node[10].nic.mac1609_4 NumInternalContention 0
scalar RSUExampleScenario.node[10].nic.mac1609_4 totalBusyTime 0
scalar RSUExampleScenario.node[10].veinsmobility startTime 45
scalar RSUExampleScenario.node[10].veinsmobility totalTime 18
scalar RSUExampleScenario.node[10].veinsmobility stopTime 64
scalar RSUExampleScenario.node[10].veinsmobility minSpeed 11.859418144786
scalar RSUExampleScenario.node[10].veinsmobility maxSpeed 15.467379343327
scalar RSUExampleScenario.node[10].veinsmobility totalDistance 250.93976048731
scalar RSUExampleScenario.node[10].veinsmobility totalCO2Emission 34.440166140826
scalar RSUExampleScenario.node[9].appl generatedWSMs 0
scalar RSUExampleScenario.node[9].appl receivedWSMs 0
scalar RSUExampleScenario.node[9].appl generatedBSMs 0
scalar RSUExampleScenario.node[9].appl receivedBSMs 0
scalar RSUExampleScenario.node[9].appl generatedWSAs 0
scalar RSUExampleScenario.node[9].appl receivedWSAs 0
scalar RSUExampleScenario.node[9].nic.phy80211p busyTime 0
scalar RSUExampleScenario.node[9].nic.mac1609_4 ReceivedUnicastPackets 0
scalar RSUExampleScenario.node[9].nic.mac1609_4 ReceivedBroadcasts 0
scalar RSUExampleScenario.node[9].nic.mac1609_4 SentPackets 0
scalar RSUExampleScenario.node[9].nic.mac1609_4 SentAcknowledgements 0
scalar RSUExampleScenario.node[9].nic.mac1609_4 SNIRLostPackets 0
scalar RSUExampleScenario.node[9].nic.mac1609_4 RXTXLostPackets 0
scalar RSUExampleScenario.node[9].nic.mac1609_4 TotalLostPackets 0
scalar RSUExampleScenario.node[9].nic.mac1609_4 DroppedPacketsInMac 0
scalar RSUExampleScenario.node[9].nic.mac1609_4 TooLittleTime 0
scalar RSUExampleScenario.node[9].nic.mac1609_4 TimesIntoBackoff 0
scalar RSUExampleScenario.node[9].nic.mac1609_4 SlotsBackoff 0
scalar RSUExampleScenario.node[9].nic.mac1609_4 NumInternalContention 0
scalar RSUExampleScenario.node[9].nic.mac1609_4 totalBusyTime 0
scalar RSUExampleScenario.node[9].veinsmobility startTime 45
scalar RSUExampleScenario.node[9].veinsmobility totalTime 20
scalar RSUExampleScenario.node[9].veinsmobility stopTime 66
scalar RSUExampleScenario.node[9].veinsmobility minSpeed 1.8960044939697
scalar RSUExampleScenario.node[9].veinsmobility maxSpeed 17.212177963695
scalar RSUExampleScenario.node[9].veinsmobility totalDistance 243.63583181503
scalar RSUExampleScenario.node[9].veinsmobility totalCO2Emission 74.123713517602
scalar RSUExampleScenario.node[11].appl generatedWSMs 0
scalar RSUExampleScenario.node[11].appl receivedWSMs 0
scalar RSUExampleScenario.node[11].appl generatedBSMs 0
scalar RSUExampleScenario.node[11].appl receivedBSMs 0
scalar RSUExampleScenario.node[11].appl generatedWSAs 0
scalar RSUExampleScenario.node[11].appl receivedWSAs 0
scalar RSUExampleScenario.node[11].nic.phy80211p busyTime 0
scalar RSUExampleScenario.node[11].nic.mac1609_4 ReceivedUnicastPackets 0
scalar RSUExampleScenario.node[11].nic.mac1609_4 ReceivedBroadcasts 0
scalar RSUExampleScenario.node[11].nic.mac1609_4 SentPackets 0
scalar RSUExampleScenario.node[11].nic.mac1609_4 SentAcknowledgements 0
scalar RSUExampleScenario.node[11].nic.mac1609_4 SNIRLostPackets 0
scalar RSUExampleScenario.node[11].nic.mac1609_4 RXTXLostPackets 0
scalar RSUExampleScenario.node[11].nic.mac1609_4 TotalLostPackets 0
scalar RSUExampleScenario.node[11].nic.mac1609_4 DroppedPacketsInMac 0
scalar RSUExampleScenario.node[11].nic.mac1609_4 TooLittleTime 0
scalar RSUExampleScenario.node[11].nic.mac1609_4 TimesIntoBackoff 0
scalar RSUExampleScenario.node[11].nic.mac1609_4 SlotsBackoff 0
scalar RSUExampleScenario.node[11].nic.mac1609_4 NumInternalContention 0
scalar RSUExampleScenario.node[11].nic.mac1609_4 totalBusyTime 0
scalar RSUExampleScenario.node[11].veinsmobility startTime 52
scalar RSUExampleScenario.node[11].veinsmobility totalTime 20
scalar RSUExampleScenario.node[11].veinsmobility stopTime 73
scalar RSUExampleScenario.node[11].veinsmobility minSpeed 11.964706170766
scalar RSUExampleScenario.node[11].veinsmobility maxSpeed 13.069710675066
scalar RSUExampleScenario.node[11].veinsmobility totalDistance 251.57548817716
scalar RSUExampleScenario.node[11].veinsmobility totalCO2Emission 38.85133528882
scalar RSUExampleScenario.node[13].appl generatedWSMs 0
scalar RSUExampleScenario.node[13].appl receivedWSMs 0
scalar RSUExampleScenario.node[13].appl generatedBSMs 0
scalar RSUExampleScenario.node[13].appl receivedBSMs 0
scalar RSUExampleScenario.node[13].appl generatedWSAs 0
scalar RSUExampleScenario.node[13].appl receivedWSAs 0
scalar RSUExampleScenario.node[13].nic.phy80211p busyTime 0
scalar RSUExampleScenario.node[13].nic.mac1609_4 ReceivedUnicastPackets 0
scalar RSUExampleScenario.node[13].nic.mac1609_4 ReceivedBroadcasts 0
scalar RSUExampleScenario.node[13].nic.mac1609_4 SentPackets 0
scalar RSUExampleScenario.node[13].nic.mac1609_4 SentAcknowledgements 0
scalar RSUExampleScenario.node[13].nic.mac1609_4 SNIRLostPackets 0
scalar RSUExampleScenario.node[13].nic.mac1609_4 RXTXLostPackets 0
scalar RSUExampleScenario.node[13].nic.mac1609_4 TotalLostPackets 0
scalar RSUExampleScenario.node[13].nic.mac1609_4 DroppedPacketsInMac 0
scalar RSUExampleScenario.node[13].nic.mac1609_4 TooLittleTime 0
scalar RSUExampleScenario.node[13].nic.mac1609_4 TimesIntoBackoff 0
scalar RSUExampleScenario.node[13].nic.mac1609_4 SlotsBackoff 0
scalar RSUExampleScenario.node[13].nic.mac1609_4 NumInternalContention 0
scalar RSUExampleScenario.node[13].nic.mac1609_4 totalBusyTime 0
scalar RSUExampleScenario.node[13].veinsmobility startTime 59
scalar RSUExampleScenario.node[13].veinsmobility totalTime 19
scalar RSUExampleScenario.node[13].veinsmobility stopTime 79
scalar RSUExampleScenario.node[13].veinsmobility minSpeed 12.652925216489
scalar RSUExampleScenario.node[13].veinsmobility maxSpeed 13.673942422367
scalar RSUExampleScenario.node[13].veinsmobility totalDistance 247.79864809223
scalar RSUExampleScenario.node[13].veinsmobility totalCO2Emission 38.406399926565
scalar RSUExampleScenario.node[12].appl generatedWSMs 0
scalar RSUExampleScenario.node[12].appl receivedWSMs 0
scalar RSUExampleScenario.node[12].appl generatedBSMs 0
scalar RSUExampleScenario.node[12].appl receivedBSMs 0
scalar RSUExampleScenario.node[12].appl generatedWSAs 0
scalar RSUExampleScenario.node[12].appl receivedWSAs 0
scalar RSUExampleScenario.node[12].nic.phy80211p busyTime 0
scalar RSUExampleScenario.node[12].nic.mac1609_4 ReceivedUnicastPackets 0
scalar RSUExampleScenario.node[12].nic.mac1609_4 ReceivedBroadcasts 0
scalar RSUExampleScenario.node[12].nic.mac1609_4 SentPackets 0
scalar RSUExampleScenario.node[12].nic.mac1609_4 SentAcknowledgements 0
scalar RSUExampleScenario.node[12].nic.mac1609_4 SNIRLostPackets 0
scalar RSUExampleScenario.node[12].nic.mac1609_4 RXTXLostPackets 0
scalar RSUExampleScenario.node[12].nic.mac1609_4 TotalLostPackets 0
scalar RSUExampleScenario.node[12].nic.mac1609_4 DroppedPacketsInMac 0
scalar RSUExampleScenario.node[12].nic.mac1609_4 TooLittleTime 0
scalar RSUExampleScenario.node[12].nic.mac1609_4 TimesIntoBackoff 0
scalar RSUExampleScenario.node[12].nic.mac1609_4 SlotsBackoff 0
scalar RSUExampleScenario.node[12].nic.mac1609_4 NumInternalContention 0
scalar RSUExampleScenario.node[12].nic.mac1609_4 totalBusyTime 0
scalar RSUExampleScenario.node[12].veinsmobility startTime 59
scalar RSUExampleScenario.node[12].veinsmobility totalTime 22
scalar RSUExampleScenario.node[12].veinsmobility stopTime 82
scalar RSUExampleScenario.node[12].veinsmobility minSpeed 3.5697992400453
scalar RSUExampleScenario.node[12].veinsmobility maxSpeed 12.88090711413
scalar RSUExampleScenario.node[12].veinsmobility totalDistance 240.72830719171
scalar RSUExampleScenario.node[12].veinsmobility totalCO2Emission 59.785615101909
scalar RSUExampleScenario.node[14].appl generatedWSMs 0
scalar RSUExampleScenario.node[14].appl receivedWSMs 0
scalar RSUExampleScenario.node[14].appl generatedBSMs 0
scalar RSUExampleScenario.node[14].appl receivedBSMs 0
scalar RSUExampleScenario.node[14].appl generatedWSAs 0
scalar RSUExampleScenario.node[14].appl receivedWSAs 0
scalar RSUExampleScenario.node[14].nic.phy80211p busyTime 0
scalar RSUExampleScenario.node[14].nic.mac1609_4 ReceivedUnicastPackets 0
scalar RSUExampleScenario.node[14].nic.mac1609_4 ReceivedBroadcasts 0
scalar RSUExampleScenario.node[14].nic.mac1609_4 SentPackets 0
scalar RSUExampleScenario.node[14].nic.mac1609_4 SentAcknowledgements 0
scalar RSUExampleScenario.node[14].nic.mac1609_4 SNIRLostPackets 0
scalar RSUExampleScenario.node[14].nic.mac1609_4 RXTXLostPackets 0
scalar RSUExampleScenario.node[14].nic.mac1609_4 TotalLostPackets 0
scalar RSUExampleScenario.node[14].nic.mac1609_4 DroppedPacketsInMac 0
scalar RSUExampleScenario.node[14].nic.mac1609_4 TooLittleTime 0
scalar RSUExampleScenario.node[14].nic.mac1609_4 TimesIntoBackoff 0
scalar RSUExampleScenario.node[14].nic.mac1609_4 SlotsBackoff 0
scalar RSUExampleScenario.node[14].nic.mac1609_4 NumInternalContention 0
scalar RSUExampleScenario.node[14].nic.mac1609_4 totalBusyTime 0
scalar RSUExampleScenario.node[14].veinsmobility startTime 66
scalar RSUExampleScenario.node[14].veinsmobility totalTime 18
scalar RSUExampleScenario.node[14].veinsmobility stopTime 85
scalar RSUExampleScenario.node[14].veinsmobility minSpeed 13.125866730513
scalar RSUExampleScenario.node[14].veinsmobility maxSpeed 14.258644087545
scalar RSUExampleScenario.node[14].veinsmobility totalDistance 245.68228737978
scalar RSUExampleScenario.node[14].veinsmobility totalCO2Emission 36.530342761915
scalar RSUExampleScenario.node[16].appl generatedWSMs 0
scalar RSUExampleScenario.node[16].appl receivedWSMs 0
scalar RSUExampleScenario.node[16].appl generatedBSMs 0
scalar RSUExampleScenario.node[16].appl receivedBSMs 0
scalar RSUExampleScenario.node[16].appl generatedWSAs 0
scalar RSUExampleScenario.node[16].appl receivedWSAs 0
scalar RSUExampleScenario.node[16].nic.phy80211p busyTime 0
scalar RSUExampleScenario.node[16].nic.mac1609_4 ReceivedUnicastPackets 0
scalar RSUExampleScenario.node[16].nic.mac1609_4 ReceivedBroadcasts 0
scalar RSUExampleScenario.node[16].nic.mac1609_4 SentPackets 0
scalar RSUExampleScenario.node[16].nic.mac1609_4 SentAcknowledgements 0
scalar RSUExampleScenario.node[16].nic.mac1609_4 SNIRLostPackets 0
scalar RSUExampleScenario.node[16].nic.mac1609_4 RXTXLostPackets 0
scalar RSUExampleScenario.node[16].nic.mac1609_4 TotalLostPackets 0
scalar RSUExampleScenario.node[16].nic.mac1609_4 DroppedPacketsInMac 0
scalar RSUExampleScenario.node[16].nic.mac1609_4 TooLittleTime 0
scalar RSUExampleScenario.node[16].nic.mac1609_4 TimesIntoBackoff 0
scalar RSUExampleScenario.node[16].nic.mac1609_4 SlotsBackoff 0
scalar RSUExampleScenario.node[16].nic.mac1609_4 NumInternalContention 0
scalar RSUExampleScenario.node[16].nic.mac1609_4 totalBusyTime 0
scalar RSUExampleScenario.node[16].veinsmobility startTime 73
scalar RSUExampleScenario.node[16].veinsmobility totalTime 18
scalar RSUExampleScenario.node[16].veinsmobility stopTime 92
scalar RSUExampleScenario.node[16].veinsmobility minSpeed 13.429575256481
scalar RSUExampleScenario.node[16].veinsmobility maxSpeed 14.490357449058
scalar RSUExampleScenario.node[16].veinsmobility totalDistance 251.07076882326
scalar RSUExampleScenario.node[16].veinsmobility totalCO2Emission 38.262909060621
scalar RSUExampleScenario.node[15].appl generatedWSMs 0
scalar RSUExampleScenario.node[15].appl receivedWSMs 0
scalar RSUExampleScenario.node[15].appl generatedBSMs 0
scalar RSUExampleScenario.node[15].appl receivedBSMs 0
scalar RSUExampleScenario.node[15].appl generatedWSAs 0
scalar RSUExampleScenario.node[15].appl receivedWSAs 0
scalar RSUExampleScenario.node[15].nic.phy80211p busyTime 0
scalar RSUExampleScenario.node[15].nic.mac1609_4 ReceivedUnicastPackets 0
scalar RSUExampleScenario.node[15].nic.mac1609_4 ReceivedBroadcasts 0
scalar RSUExampleScenario.node[15].nic.mac1609_4 SentPackets 0
scalar RSUExampleScenario.node[15].nic.mac1609_4 SentAcknowledgements 0
scalar RSUExampleScenario.node[15].nic.mac1609_4 SNIRLostPackets 0
scalar RSUExampleScenario.node[15].nic.mac1609_4 RXTXLostPackets 0
scalar RSUExampleScenario.node[15].nic.mac1609_4 TotalLostPackets 0
scalar RSUExampleScenario.node[15].nic.mac1609_4 DroppedPacketsInMac 0
scalar RSUExampleScenario.node[15].nic.mac1609_4 TooLittleTime 0
scalar RSUExampleScenario.node[15].nic.mac1609_4 TimesIntoBackoff 0
scalar RSUExampleScenario.node[15].nic.mac1609_4 SlotsBackoff 0
scalar RSUExampleScenario.node[15].nic.mac1609_4 NumInternalContention 0
scalar RSUExampleScenario.node[15].nic.mac1609_4 totalBusyTime 0
scalar RSUExampleScenario.node[15].veinsmobility startTime 73
scalar RSUExampleScenario.node[15].veinsmobility totalTime 22
scalar RSUExampleScenario.node[15].veinsmobility stopTime 96
scalar RSUExampleScenario.node[15].veinsmobility minSpeed 1.1513818866824
scalar RSUExampleScenario.node[15].veinsmobility maxSpeed 14.432919442072
scalar RSUExampleScenario.node[15].veinsmobility totalDistance 244.04533809251
scalar RSUExampleScenario.node[15].veinsmobility totalCO2Emission 65.731791428635
scalar RSUExampleScenario.node[17].appl generatedWSMs 0
scalar RSUExampleScenario.node[17].appl receivedWSMs 0
scalar RSUExampleScenario.node[17].appl generatedBSMs 0
scalar RSUExampleScenario.node[17].appl receivedBSMs 0
scalar RSUExampleScenario.node[17].appl generatedWSAs 0
scalar RSUExampleScenario.node[17].appl receivedWSAs 0
scalar RSUExampleScenario.node[17].nic.phy80211p busyTime 0
scalar RSUExampleScenario.node[17].nic.mac1609_4 ReceivedUnicastPackets 0
scalar RSUExampleScenario.node[17].nic.mac1609_4 ReceivedBroadcasts 0
scalar RSUExampleScenario.node[17].nic.mac1609_4 SentPackets 0
scalar RSUExampleScenario.node[17].nic.mac1609_4 SentAcknowledgements 0
scalar RSUExampleScenario.node[17].nic.mac1609_4 SNIRLostPackets 0
scalar RSUExampleScenario.node[17].nic.mac1609_4 RXTXLostPackets 0
scalar RSUExampleScenario.node[17].nic.mac1609_4 TotalLostPackets 0
scalar RSUExampleScenario.node[17].nic.mac1609_4 DroppedPacketsInMac 0
scalar RSUExampleScenario.node[17].nic.mac1609_4 TooLittleTime 0
scalar RSUExampleScenario.node[17].nic.mac1609_4 TimesIntoBackoff 0
scalar RSUExampleScenario.node[17].nic.mac1609_4 SlotsBackoff 0
scalar RSUExampleScenario.node[17].nic.mac1609_4 NumInternalContention 0
scalar RSUExampleScenario.node[17].nic.mac1609_4 totalBusyTime 0
scalar RSUExampleScenario.node[17].veinsmobility startTime 81
scalar RSUExampleScenario.node[17].veinsmobility totalTime 27
scalar RSUExampleScenario.node[17].veinsmobility stopTime 109
scalar RSUExampleScenario.node[17].veinsmobility minSpeed 8.7679439688939
scalar RSUExampleScenario.node[17].veinsmobility maxSpeed 10.055385574223
scalar RSUExampleScenario.node[17].veinsmobility totalDistance 255.94370050471
scalar RSUExampleScenario.node[17].veinsmobility totalCO2Emission 48.203506278651
scalar RSUExampleScenario.node[19].appl generatedWSMs 0
scalar RSUExampleScenario.node[19].appl receivedWSMs 0
scalar RSUExampleScenario.node[19].appl generatedBSMs 0
scalar RSUExampleScenario.node[19].appl receivedBSMs 0
scalar RSUExampleScenario.node[19].appl generatedWSAs 0
scalar RSUExampleScenario.node[19].appl receivedWSAs 0
scalar RSUExampleScenario.node[19].nic.phy80211p busyTime 0
scalar RSUExampleScenario.node[19].nic.mac1609_4 ReceivedUnicastPackets 0
scalar RSUExampleScenario.node[19].nic.mac1609_4 ReceivedBroadcasts 0
scalar RSUExampleScenario.node[19].nic.mac1609_4 SentPackets 0
scalar RSUExampleScenario.node[19].nic.mac1609_4 SentAcknowledgements 0
scalar RSUExampleScenario.node[19].nic.mac1609_4 SNIRLostPackets 0
scalar RSUExampleScenario.node[19].nic.mac1609_4 RXTXLostPackets 0
scalar RSUExampleScenario.node[19].nic.mac1609_4 TotalLostPackets 0
scalar RSUExampleScenario.node[19].nic.mac1609_4 DroppedPacketsInMac 0
scalar RSUExampleScenario.node[19].nic.mac1609_4 TooLittleTime 0
scalar RSUExampleScenario.node[19].nic.mac1609_4 TimesIntoBackoff 0
scalar RSUExampleScenario.node[19].nic.mac1609_4 SlotsBackoff 0
scalar RSUExampleScenario.node[19].nic.mac1609_4 NumInternalContention 0
scalar RSUExampleScenario.node[19].nic.mac1609_4 totalBusyTime 0
scalar RSUExampleScenario.node[19].veinsmobility startTime 88
scalar RSUExampleScenario.node[19].veinsmobility totalTime 21
scalar RSUExampleScenario.node[19].veinsmobility stopTime 110
scalar RSUExampleScenario.node[19].veinsmobility minSpeed 9.7307418063375
scalar RSUExampleScenario.node[19].veinsmobility maxSpeed 12.930246414692
scalar RSUExampleScenario.node[19].veinsmobility totalDistance 245.84369612114
scalar RSUExampleScenario.node[19].veinsmobility totalCO2Emission 39.639065594044
scalar RSUExampleScenario.node[20].appl generatedWSMs 0
scalar RSUExampleScenario.node[20].appl receivedWSMs 0
scalar RSUExampleScenario.node[20].appl generatedBSMs 0
scalar RSUExampleScenario.node[20].appl receivedBSMs 0
scalar RSUExampleScenario.node[20].appl generatedWSAs 0
scalar RSUExampleScenario.node[20].appl receivedWSAs 0
scalar RSUExampleScenario.node[20].nic.phy80211p busyTime 0
scalar RSUExampleScenario.node[20].nic.mac1609_4 ReceivedUnicastPackets 0
scalar RSUExampleScenario.node[20].nic.mac1609_4 ReceivedBroadcasts 0
scalar RSUExampleScenario.node[20].nic.mac1609_4 SentPackets 0
scalar RSUExampleScenario.node[20].nic.mac1609_4 SentAcknowledgements 0
scalar RSUExampleScenario.node[20].nic.mac1609_4 SNIRLostPackets 0
scalar RSUExampleScenario.node[20].nic.mac1609_4 RXTXLostPackets 0
scalar RSUExampleScenario.node[20].nic.mac1609_4 TotalLostPackets 0
scalar RSUExampleScenario.node[20].nic.mac1609_4 DroppedPacketsInMac 0
scalar RSUExampleScenario.node[20].nic.mac1609_4 TooLittleTime 0
scalar RSUExampleScenario.node[20].nic.mac1609_4 TimesIntoBackoff 0
scalar RSUExampleScenario.node[20].nic.mac1609_4 SlotsBackoff 0
scalar RSUExampleScenario.node[20].nic.mac1609_4 NumInternalContention 0
scalar RSUExampleScenario.node[20].nic.mac1609_4 totalBusyTime 0
scalar RSUExampleScenario.node[20].veinsmobility startTime 95
scalar RSUExampleScenario.node[20].veinsmobility totalTime 16
scalar RSUExampleScenario.node[20].veinsmobility stopTime 112
scalar RSUExampleScenario.node[20].veinsmobility minSpeed 12.147708436426
scalar RSUExampleScenario.node[20].veinsmobility maxSpeed 16.356388508624
scalar RSUExampleScenario.node[20].veinsmobility totalDistance 244.50382232913
scalar RSUExampleScenario.node[20].veinsmobility totalCO2Emission 45.830022761619
scalar RSUExampleScenario.node[18].appl generatedWSMs 0
scalar RSUExampleScenario.node[18].appl receivedWSMs 0
scalar RSUExampleScenario.node[18].appl generatedBSMs 0
scalar RSUExampleScenario.node[18].appl receivedBSMs 0
scalar RSUExampleScenario.node[18].appl generatedWSAs 0
scalar RSUExampleScenario.node[18].appl receivedWSAs 0
scalar RSUExampleScenario.node[18].nic.phy80211p busyTime 0
scalar RSUExampleScenario.node[18].nic.mac1609_4 ReceivedUnicastPackets 0
scalar RSUExampleScenario.node[18].nic.mac1609_4 ReceivedBroadcasts 0
scalar RSUExampleScenario.node[18].nic.mac1609_4 SentPackets 0
scalar RSUExampleScenario.node[18].nic.mac1609_4 SentAcknowledgements 0
scalar RSUExampleScenario.node[18].nic.mac1609_4 SNIRLostPackets 0
scalar RSUExampleScenario.node[18].nic.mac1609_4 RXTXLostPackets 0
scalar RSUExampleScenario.node[18].nic.mac1609_4 TotalLostPackets 0
scalar RSUExampleScenario.node[18].nic.mac1609_4 DroppedPacketsInMac 0
scalar RSUExampleScenario.node[18].nic.mac1609_4 TooLittleTime 0
scalar RSUExampleScenario.node[18].nic.mac1609_4 TimesIntoBackoff 0
scalar RSUExampleScenario.node[18].nic.mac1609_4 SlotsBackoff 0
scalar RSUExampleScenario.node[18].nic.mac1609_4 NumInternalContention 0
scalar RSUExampleScenario.node[18].nic.mac1609_4 totalBusyTime 0
scalar RSUExampleScenario.node[18].veinsmobility startTime 88
scalar RSUExampleScenario.node[18].veinsmobility totalTime 29
scalar RSUExampleScenario.node[18].veinsmobility stopTime 118
scalar RSUExampleScenario.node[18].veinsmobility minSpeed 0
scalar RSUExampleScenario.node[18].veinsmobility maxSpeed 15.33703305396
scalar RSUExampleScenario.node[18].veinsmobility totalDistance 240.49972684712
scalar RSUExampleScenario.node[18].veinsmobility totalCO2Emission 73.784316744394
scalar RSUExampleScenario.node[22].appl generatedWSMs 0
scalar RSUExampleScenario.node[22].appl receivedWSMs 0
scalar RSUExampleScenario.node[22].appl generatedBSMs 0
scalar RSUExampleScenario.node[22].appl receivedBSMs 0
scalar RSUExampleScenario.node[22].appl generatedWSAs 0
scalar RSUExampleScenario.node[22].appl receivedWSAs 0
scalar RSUExampleScenario.node[22].nic.phy80211p busyTime 0
scalar RSUExampleScenario.node[22].nic.mac1609_4 ReceivedUnicastPackets 0
scalar RSUExampleScenario.node[22].nic.mac1609_4 ReceivedBroadcasts 0
scalar RSUExampleScenario.node[22].nic.mac1609_4 SentPackets 0
scalar RSUExampleScenario.node[22].nic.mac1609_4 SentAcknowledgements 0
scalar RSUExampleScenario.node[22].nic.mac1609_4 SNIRLostPackets 0
scalar RSUExampleScenario.node[22].nic.mac1609_4 RXTXLostPackets 0
scalar RSUExampleScenario.node[22].nic.mac1609_4 TotalLostPackets 0
scalar RSUExampleScenario.node[22].nic.mac1609_4 DroppedPacketsInMac 0
scalar RSUExampleScenario.node[22].nic.mac1609_4 TooLittleTime 0
scalar RSUExampleScenario.node[22].nic.mac1609_4 TimesIntoBackoff 0
scalar RSUExampleScenario.node[22].nic.mac1609_4 SlotsBackoff 0
scalar RSUExampleScenario.node[22].nic.mac1609_4 NumInternalContention 0
scalar RSUExampleScenario.node[22].nic.mac1609_4 totalBusyTime 0
scalar RSUExampleScenario.node[22].veinsmobility startTime 102
scalar RSUExampleScenario.node[22].veinsmobility totalTime 19
scalar RSUExampleScenario.node[22].veinsmobility stopTime 122
scalar RSUExampleScenario.node[22].veinsmobility minSpeed 12.672773312095
scalar RSUExampleScenario.node[22].veinsmobility maxSpeed 13.951226252171
scalar RSUExampleScenario.node[22].veinsmobility totalDistance 251.59497406426
scalar RSUExampleScenario.node[22].veinsmobility totalCO2Emission 43.506347063053
scalar RSUExampleScenario.node[21].appl generatedWSMs 0
scalar RSUExampleScenario.node[21].appl receivedWSMs 0
scalar RSUExampleScenario.node[21].appl generatedBSMs 0
scalar RSUExampleScenario.node[21].appl receivedBSMs 0
scalar RSUExampleScenario.node[21].appl generatedWSAs 0
scalar RSUExampleScenario.node[21].appl receivedWSAs 0
scalar RSUExampleScenario.node[21].nic.phy80211p busyTime 0
scalar RSUExampleScenario.node[21].nic.mac1609_4 ReceivedUnicastPackets 0
scalar RSUExampleScenario.node[21].nic.mac1609_4 ReceivedBroadcasts 0
scalar RSUExampleScenario.node[21].nic.mac1609_4 SentPackets 0
scalar RSUExampleScenario.node[21].nic.mac1609_4 SentAcknowledgements 0
scalar RSUExampleScenario.node[21].nic.mac1609_4 SNIRLostPackets 0
scalar RSUExampleScenario.node[21].nic.mac1609_4 RXTXLostPackets 0
scalar RSUExampleScenario.node[21].nic.mac1609_4 TotalLostPackets 0
scalar RSUExampleScenario.node[21].nic.mac1609_4 DroppedPacketsInMac 0
scalar RSUExampleScenario.node[21].nic.mac1609_4 TooLittleTime 0
scalar RSUExampleScenario.node[21].nic.mac1609_4 TimesIntoBackoff 0
scalar RSUExampleScenario.node[21].nic.mac1609_4 SlotsBackoff 0
scalar RSUExampleScenario.node[21].nic.mac1609_4 NumInternalContention 0
scalar RSUExampleScenario.node[21].nic.mac1609_4 totalBusyTime 0
scalar RSUExampleScenario.node[21].veinsmobility startTime 102
scalar RSUExampleScenario.node[21].veinsmobility totalTime 22
scalar RSUExampleScenario.node[21].veinsmobility stopTime 125
scalar RSUExampleScenario.node[21].veinsmobility minSpeed 4.8511899206077
scalar RSUExampleScenario.node[21].veinsmobility maxSpeed 12.276323054306
scalar RSUExampleScenario.node[21].veinsmobility totalDistance 235.98313786536
scalar RSUExampleScenario.node[21].veinsmobility totalCO2Emission 53.644425479744
scalar RSUExampleScenario.node[23].appl generatedWSMs 0
scalar RSUExampleScenario.node[23].appl receivedWSMs 0
scalar RSUExampleScenario.node[23].appl generatedBSMs 0
scalar RSUExampleScenario.node[23].appl receivedBSMs 0
scalar RSUExampleScenario.node[23].appl generatedWSAs 0
scalar RSUExampleScenario.node[23].appl receivedWSAs 0
scalar RSUExampleScenario.node[23].nic.phy80211p busyTime 0
scalar RSUExampleScenario.node[23].nic.mac1609_4 ReceivedUnicastPackets 0
scalar RSUExampleScenario.node[23].nic.mac1609_4 ReceivedBroadcasts 0
scalar RSUExampleScenario.node[23].nic.mac1609_4 SentPackets 0
scalar RSUExampleScenario.node[23].nic.mac1609_4 SentAcknowledgements 0
scalar RSUExampleScenario.node[23].nic.mac1609_4 SNIRLostPackets 0
scalar RSUExampleScenario.node[23].nic.mac1609_4 RXTXLostPackets 0
scalar RSUExampleScenario.node[23].nic.mac1609_4 TotalLostPackets 0
scalar RSUExampleScenario.node[23].nic.mac1609_4 DroppedPacketsInMac 0
scalar RSUExampleScenario.node[23].nic.mac1609_4 TooLittleTime 0
scalar RSUExampleScenario.node[23].nic.mac1609_4 TimesIntoBackoff 0
scalar RSUExampleScenario.node[23].nic.mac1609_4 SlotsBackoff 0
scalar RSUExampleScenario.node[23].nic.mac1609_4 NumInternalContention 0
scalar RSUExampleScenario.node[23].nic.mac1609_4 totalBusyTime 0
scalar RSUExampleScenario.node[23].veinsmobility startTime 109
scalar RSUExampleScenario.node[23].veinsmobility totalTime 26
scalar RSUExampleScenario.node[23].veinsmobility stopTime 136
scalar RSUExampleScenario.node[23].veinsmobility minSpeed 9.1453548080616
scalar RSUExampleScenario.node[23].veinsmobility maxSpeed 10.333382348796
scalar RSUExampleScenario.node[23].veinsmobility totalDistance 252.12118901498
scalar RSUExampleScenario.node[23].veinsmobility totalCO2Emission 47.190082505966
scalar RSUExampleScenario.node[25].appl generatedWSMs 0
scalar RSUExampleScenario.node[25].appl receivedWSMs 0
scalar RSUExampleScenario.node[25].appl generatedBSMs 0
scalar RSUExampleScenario.node[25].appl receivedBSMs 0
scalar RSUExampleScenario.node[25].appl generatedWSAs 0
scalar RSUExampleScenario.node[25].appl receivedWSAs 0
scalar RSUExampleScenario.node[25].nic.phy80211p busyTime 0
scalar RSUExampleScenario.node[25].nic.mac1609_4 ReceivedUnicastPackets 0
scalar RSUExampleScenario.node[25].nic.mac1609_4 ReceivedBroadcasts 0
scalar RSUExampleScenario.node[25].nic.mac1609_4 SentPackets 0
scalar RSUExampleScenario.node[25].nic.mac1609_4 SentAcknowledgements 0
scalar RSUExampleScenario.node[25].nic.mac1609_4 SNIRLostPackets 0
scalar RSUExampleScenario.node[25].nic.mac1609_4 RXTXLostPackets 0
scalar RSUExampleScenario.node[25].nic.mac1609_4 TotalLostPackets 0
scalar RSUExampleScenario.node[25].nic.mac1609_4 DroppedPacketsInMac 0
scalar RSUExampleScenario.node[25].nic.mac1609_4 TooLittleTime 0
scalar RSUExampleScenario.node[25].nic.mac1609_4 TimesIntoBackoff 0
scalar RSUExampleScenario.node[25].nic.mac1609_4 SlotsBackoff 0
scalar RSUExampleScenario.node[25].nic.mac1609_4 NumInternalContention 0
scalar RSUExampleScenario.node[25].nic.mac1609_4 totalBusyTime 0
scalar RSUExampleScenario.node[25].veinsmobility startTime 117
scalar RSUExampleScenario.node[25].veinsmobility totalTime 20
scalar RSUExampleScenario.node[25].veinsmobility stopTime 138
scalar RSUExampleScenario.node[25].veinsmobility minSpeed 9.5797692643499
scalar RSUExampleScenario.node[25].veinsmobility maxSpeed 15.023219520814
scalar RSUExampleScenario.node[25].veinsmobility totalDistance 253.84378091763
scalar RSUExampleScenario.node[25].veinsmobility totalCO2Emission 45.707377360427
scalar RSUExampleScenario.node[24].appl generatedWSMs 0
scalar RSUExampleScenario.node[24].appl receivedWSMs 0
scalar RSUExampleScenario.node[24].appl generatedBSMs 0
scalar RSUExampleScenario.node[24].appl receivedBSMs 0
scalar RSUExampleScenario.node[24].appl generatedWSAs 0
scalar RSUExampleScenario.node[24].appl receivedWSAs 0
scalar RSUExampleScenario.node[24].nic.phy80211p busyTime 0
scalar RSUExampleScenario.node[24].nic.mac1609_4 ReceivedUnicastPackets 0
scalar RSUExampleScenario.node[24].nic.mac1609_4 ReceivedBroadcasts 0
scalar RSUExampleScenario.node[24].nic.mac1609_4 SentPackets 0
scalar RSUExampleScenario.node[24].nic.mac1609_4 SentAcknowledgements 0
scalar RSUExampleScenario.node[24].nic.mac1609_4 SNIRLostPackets 0
scalar RSUExampleScenario.node[24].nic.mac1609_4 RXTXLostPackets 0
scalar RSUExampleScenario.node[24].nic.mac1609_4 TotalLostPackets 0
scalar RSUExampleScenario.node[24].nic.mac1609_4 DroppedPacketsInMac 0
scalar RSUExampleScenario.node[24].nic.mac1609_4 TooLittleTime 0
scalar RSUExampleScenario.node[24].nic.mac1609_4 TimesIntoBackoff 0
scalar RSUExampleScenario.node[24].nic.mac1609_4 SlotsBackoff 0
scalar RSUExampleScenario.node[24].nic.mac1609_4 NumInternalContention 0
scalar RSUExampleScenario.node[24].nic.mac1609_4 totalBusyTime 0
scalar RSUExampleScenario.node[24].veinsmobility startTime 117
scalar RSUExampleScenario.node[24].veinsmobility totalTime 22
scalar RSUExampleScenario.node[24].veinsmobility stopTime 140
scalar RSUExampleScenario.node[24].veinsmobility minSpeed 8.0148326385012
scalar RSUExampleScenario.node[24].veinsmobility maxSpeed 12.706827553584
scalar RSUExampleScenario.node[24].veinsmobility totalDistance 245.44019150832
scalar RSUExampleScenario.node[24].veinsmobility totalCO2Emission 64.382962864294
scalar RSUExampleScenario.node[26].appl generatedWSMs 0
scalar RSUExampleScenario.node[26].appl receivedWSMs 0
scalar RSUExampleScenario.node[26].appl generatedBSMs 0
scalar RSUExampleScenario.node[26].appl receivedBSMs 0
scalar RSUExampleScenario.node[26].appl generatedWSAs 0
scalar RSUExampleScenario.node[26].appl receivedWSAs 0
scalar RSUExampleScenario.node[26].nic.phy80211p busyTime 0
scalar RSUExampleScenario.node[26].nic.mac1609_4 ReceivedUnicastPackets 0
scalar RSUExampleScenario.node[26].nic.mac1609_4 ReceivedBroadcasts 0
scalar RSUExampleScenario.node[26].nic.mac1609_4 SentPackets 0
scalar RSUExampleScenario.node[26].nic.mac1609_4 SentAcknowledgements 0
scalar RSUExampleScenario.node[26].nic.mac1609_4 SNIRLostPackets 0
scalar RSUExampleScenario.node[26].nic.mac1609_4 RXTXLostPackets 0
scalar RSUExampleScenario.node[26].nic.mac1609_4 TotalLostPackets 0
scalar RSUExampleScenario.node[26].nic.mac1609_4 DroppedPacketsInMac 0
scalar RSUExampleScenario.node[26].nic.mac1609_4 TooLittleTime 0
scalar RSUExampleScenario.node[26].nic.mac1609_4 TimesIntoBackoff 0
scalar RSUExampleScenario.node[26].nic.mac1609_4 SlotsBackoff 0
scalar RSUExampleScenario.node[26].nic.mac1609_4 NumInternalContention 0
scalar RSUExampleScenario.node[26].nic.mac1609_4 totalBusyTime 0
scalar RSUExampleScenario.node[26].veinsmobility startTime 124
scalar RSUExampleScenario.node[26].veinsmobility totalTime 19
scalar RSUExampleScenario.node[26].veinsmobility stopTime 144
scalar RSUExampleScenario.node[26].veinsmobility minSpeed 12.276763689346
scalar RSUExampleScenario.node[26].veinsmobility maxSpeed 13.477640784895
scalar RSUExampleScenario.node[26].veinsmobility totalDistance 243.80363955918
scalar RSUExampleScenario.node[26].veinsmobility totalCO2Emission 42.184120169281
scalar RSUExampleScenario.node[28].appl generatedWSMs 0
scalar RSUExampleScenario.node[28].appl receivedWSMs 0
scalar RSUExampleScenario.node[28].appl generatedBSMs 0
scalar RSUExampleScenario.node[28].appl receivedBSMs 0
scalar RSUExampleScenario.node[28].appl generatedWSAs 0
scalar RSUExampleScenario.node[28].appl receivedWSAs 0
scalar RSUExampleScenario.node[28].nic.phy80211p busyTime 0
scalar RSUExampleScenario.node[28].nic.mac1609_4 ReceivedUnicastPackets 0
scalar RSUExampleScenario.node[28].nic.mac1609_4 ReceivedBroadcasts 0
scalar RSUExampleScenario.node[28].nic.mac1609_4 SentPackets 0
scalar RSUExampleScenario.node[28].nic.mac1609_4 SentAcknowledgements 0
scalar RSUExampleScenario.node[28].nic.mac1609_4 SNIRLostPackets 0
scalar RSUExampleScenario.node[28].nic.mac1609_4 RXTXLostPackets 0
scalar RSUExampleScenario.node[28].nic.mac1609_4 TotalLostPackets 0
scalar RSUExampleScenario.node[28].nic.mac1609_4 DroppedPacketsInMac 0
scalar RSUExampleScenario.node[28].nic.mac1609_4 TooLittleTime 0
scalar RSUExampleScenario.node[28].nic.mac1609_4 TimesIntoBackoff 0
scalar RSUExampleScenario.node[28].nic.mac1609_4 SlotsBackoff 0
scalar RSUExampleScenario.node[28].nic.mac1609_4 NumInternalContention 0
scalar RSUExampleScenario.node[28].nic.mac1609_4 totalBusyTime 0
scalar RSUExampleScenario.node[28].veinsmobility startTime 131
scalar RSUExampleScenario.node[28].veinsmobility totalTime 18
scalar RSUExampleScenario.node[28].veinsmobility stopTime 150
scalar RSUExampleScenario.node[28].veinsmobility minSpeed 13.171715272701
scalar RSUExampleScenario.node[28].veinsmobility maxSpeed 14.038557868794
scalar RSUExampleScenario.node[28].veinsmobility totalDistance 245.11809533239
scalar RSUExampleScenario.node[28].veinsmobility totalCO2Emission 36.83228946671
scalar RSUExampleScenario.node[27].appl generatedWSMs 0
scalar RSUExampleScenario.node[27].appl receivedWSMs 0
scalar RSUExampleScenario.node[27].appl generatedBSMs 0
scalar RSUExampleScenario.node[27].appl receivedBSMs 0
scalar RSUExampleScenario.node[27].appl generatedWSAs 0
scalar RSUExampleScenario.node[27].appl receivedWSAs 0
scalar RSUExampleScenario.node[27].nic.phy80211p busyTime 0
scalar RSUExampleScenario.node[27].nic.mac1609_4 ReceivedUnicastPackets 0
scalar RSUExampleScenario.node[27].nic.mac1609_4 ReceivedBroadcasts 0
scalar RSUExampleScenario.node[27].nic.mac1609_4 SentPackets 0
scalar RSUExampleScenario.node[27].nic.mac1609_4 SentAcknowledgements 0
scalar RSUExampleScenario.node[27].nic.mac1609_4 SNIRLostPackets 0
scalar RSUExampleScenario.node[27].nic.mac1609_4 RXTXLostPackets 0
scalar RSUExampleScenario.node[27].nic.mac1609_4 TotalLostPackets 0
scalar RSUExampleScenario.node[27].nic.mac1609_4 DroppedPacketsInMac 0
scalar RSUExampleScenario.node[27].nic.mac1609_4 TooLittleTime 0
scalar RSUExampleScenario.node[27].nic.mac1609_4 TimesIntoBackoff 0
scalar RSUExampleScenario.node[27].nic.mac1609_4 SlotsBackoff 0
scalar RSUExampleScenario.node[27].nic.mac1609_4 NumInternalContention 0
scalar RSUExampleScenario.node[27].nic.mac1609_4 totalBusyTime 0
scalar RSUExampleScenario.node[27].veinsmobility startTime 131
scalar RSUExampleScenario.node[27].veinsmobility totalTime 23
scalar RSUExampleScenario.node[27].veinsmobility stopTime 155
scalar RSUExampleScenario.node[27].veinsmobility minSpeed 0.26434808734076
scalar RSUExampleScenario.node[27].veinsmobility maxSpeed 14.086725485324
scalar RSUExampleScenario.node[27].veinsmobility totalDistance 234.60205458141
scalar RSUExampleScenario.node[27].veinsmobility totalCO2Emission 66.064998227423
scalar RSUExampleScenario.node[29].appl generatedWSMs 0
scalar RSUExampleScenario.node[29].appl receivedWSMs 0
scalar RSUExampleScenario.node[29].appl generatedBSMs 0
scalar RSUExampleScenario.node[29].appl receivedBSMs 0
scalar RSUExampleScenario.node[29].appl generatedWSAs 0
scalar RSUExampleScenario.node[29].appl receivedWSAs 0
scalar RSUExampleScenario.node[29].nic.phy80211p busyTime 0
scalar RSUExampleScenario.node[29].nic.mac1609_4 ReceivedUnicastPackets 0
scalar RSUExampleScenario.node[29].nic.mac1609_4 ReceivedBroadcasts 0
scalar RSUExampleScenario.node[29].nic.mac1609_4 SentPackets 0
scalar RSUExampleScenario.node[29].nic.mac1609_4 SentAcknowledgements 0
scalar RSUExampleScenario.node[29].nic.mac1609_4 SNIRLostPackets 0
scalar RSUExampleScenario.node[29].nic.mac1609_4 RXTXLostPackets 0
scalar RSUExampleScenario.node[29].nic.mac1609_4 TotalLostPackets 0
scalar RSUExampleScenario.node[29].nic.mac1609_4 DroppedPacketsInMac 0
scalar RSUExampleScenario.node[29].nic.mac1609_4 TooLittleTime 0
scalar RSUExampleScenario.node[29].nic.mac1609_4 TimesIntoBackoff 0
scalar RSUExampleScenario.node[29].nic.mac1609_4 SlotsBackoff 0
scalar RSUExampleScenario.node[29].nic.mac1609_4 NumInternalContention 0
scalar RSUExampleScenario.node[29].nic.mac1609_4 totalBusyTime 0
scalar RSUExampleScenario.node[29].veinsmobility startTime 138
scalar RSUExampleScenario.node[29].veinsmobility totalTime 18
scalar RSUExampleScenario.node[29].veinsmobility stopTime 157
scalar RSUExampleScenario.node[29].veinsmobility minSpeed 12.307427406461
scalar RSUExampleScenario.node[29].veinsmobility maxSpeed 14.627368651921
scalar RSUExampleScenario.node[29].veinsmobility totalDistance 247.35534859227
scalar RSUExampleScenario.node[29].veinsmobility totalCO2Emission 43.732131241713
scalar RSUExampleScenario.node[31].appl generatedWSMs 0
scalar RSUExampleScenario.node[31].appl receivedWSMs 0
scalar RSUExampleScenario.node[31].appl generatedBSMs 0
scalar RSUExampleScenario.node[31].appl receivedBSMs 0
scalar RSUExampleScenario.node[31].appl generatedWSAs 0
scalar RSUExampleScenario.node[31].appl receivedWSAs 0
scalar RSUExampleScenario.node[31].nic.phy80211p busyTime 0
scalar RSUExampleScenario.node[31].nic.mac1609_4 ReceivedUnicastPackets 0
scalar RSUExampleScenario.node[31].nic.mac1609_4 ReceivedBroadcasts 0
scalar RSUExampleScenario.node[31].nic.mac1609_4 SentPackets 0
scalar RSUExampleScenario.node[31].nic.mac1609_4 SentAcknowledgements 0
scalar RSUExampleScenario.node[31].nic.mac1609_4 SNIRLostPackets 0
scalar RSUExampleScenario.node[31].nic.mac1609_4 RXTXLostPackets 0
scalar RSUExampleScenario.node[31].nic.mac1609_4 TotalLostPackets 0
scalar RSUExampleScenario.node[31].nic.mac1609_4 DroppedPacketsInMac 0
scalar RSUExampleScenario.node[31].nic.mac1609_4 TooLittleTime 0
scalar RSUExampleScenario.node[31].nic.mac1609_4 TimesIntoBackoff 0
scalar RSUExampleScenario.node[31].nic.mac1609_4 SlotsBackoff 0
scalar RSUExampleScenario.node[31].nic.mac1609_4 NumInternalContention 0
scalar RSUExampleScenario.node[31].nic.mac1609_4 totalBusyTime 0
scalar RSUExampleScenario.node[31].veinsmobility startTime 145
scalar RSUExampleScenario.node[31].veinsmobility totalTime 15
scalar RSUExampleScenario.node[31].veinsmobility stopTime 161
scalar RSUExampleScenario.node[31].veinsmobility minSpeed 15.385522929899
scalar RSUExampleScenario.node[31].veinsmobility maxSpeed 16.513349329232
scalar RSUExampleScenario.node[31].veinsmobility totalDistance 241.40148913839
scalar RSUExampleScenario.node[31].veinsmobility totalCO2Emission 35.455064387527
scalar RSUExampleScenario.node[30].appl generatedWSMs 0
scalar RSUExampleScenario.node[30].appl receivedWSMs 0
scalar RSUExampleScenario.node[30].appl generatedBSMs 0
scalar RSUExampleScenario.node[30].appl receivedBSMs 0
scalar RSUExampleScenario.node[30].appl generatedWSAs 0
scalar RSUExampleScenario.node[30].appl receivedWSAs 0
scalar RSUExampleScenario.node[30].nic.phy80211p busyTime 0
scalar RSUExampleScenario.node[30].nic.mac1609_4 ReceivedUnicastPackets 0
scalar RSUExampleScenario.node[30].nic.mac1609_4 ReceivedBroadcasts 0
scalar RSUExampleScenario.node[30].nic.mac1609_4 SentPackets 0
scalar RSUExampleScenario.node[30].nic.mac1609_4 SentAcknowledgements 0
scalar RSUExampleScenario.node[30].nic.mac1609_4 SNIRLostPackets 0
scalar RSUExampleScenario.node[30].nic.mac1609_4 RXTXLostPackets 0
scalar RSUExampleScenario.node[30].nic.mac1609_4 TotalLostPackets 0
scalar RSUExampleScenario.node[30].nic.mac1609_4 DroppedPacketsInMac 0
scalar RSUExampleScenario.node[30].nic.mac1609_4 TooLittleTime 0
scalar RSUExampleScenario.node[30].nic.mac1609_4 TimesIntoBackoff 0
scalar RSUExampleScenario.node[30].nic.mac1609_4 SlotsBackoff 0
scalar RSUExampleScenario.node[30].nic.mac1609_4 NumInternalContention 0
scalar RSUExampleScenario.node[30].nic.mac1609_4 totalBusyTime 0
scalar RSUExampleScenario.node[30].veinsmobility startTime 145
scalar RSUExampleScenario.node[30].veinsmobility totalTime 19
scalar RSUExampleScenario.node[30].veinsmobility stopTime 165
scalar RSUExampleScenario.node[30].veinsmobility minSpeed 3.6136101369991
scalar RSUExampleScenario.node[30].veinsmobility maxSpeed 15.885964521982
scalar RSUExampleScenario.node[30].veinsmobility totalDistance 241.33498464955
scalar RSUExampleScenario.node[30].veinsmobility totalCO2Emission 63.373950614053
scalar RSUExampleScenario.node[32].appl generatedWSMs 0
scalar RSUExampleScenario.node[32].appl receivedWSMs 0
scalar RSUExampleScenario.node[32].appl generatedBSMs 0
scalar RSUExampleScenario.node[32].appl receivedBSMs 0
scalar RSUExampleScenario.node[32].appl generatedWSAs 0
scalar RSUExampleScenario.node[32].appl receivedWSAs 0
scalar RSUExampleScenario.node[32].nic.phy80211p busyTime 0
scalar RSUExampleScenario.node[32].nic.mac1609_4 ReceivedUnicastPackets 0
scalar RSUExampleScenario.node[32].nic.mac1609_4 ReceivedBroadcasts 0
scalar RSUExampleScenario.node[32].nic.mac1609_4 SentPackets 0
scalar RSUExampleScenario.node[32].nic.mac1609_4 SentAcknowledgements 0
scalar RSUExampleScenario.node[32].nic.mac1609_4 SNIRLostPackets 0
scalar RSUExampleScenario.node[32].nic.mac1609_4 RXTXLostPackets 0
scalar RSUExampleScenario.node[32].nic.mac1609_4 TotalLostPackets 0
scalar RSUExampleScenario.node[32].nic.mac1609_4 DroppedPacketsInMac 0
scalar RSUExampleScenario.node[32].nic.mac1609_4 TooLittleTime 0
scalar RSUExampleScenario.node[32].nic.mac1609_4 TimesIntoBackoff 0
scalar RSUExampleScenario.node[32].nic.mac1609_4 SlotsBackoff 0
scalar RSUExampleScenario.node[32].nic.mac1609_4 NumInternalContention 0
scalar RSUExampleScenario.node[32].nic.mac1609_4 totalBusyTime 0
scalar RSUExampleScenario.node[32].veinsmobility startTime 153
scalar RSUExampleScenario.node[32].veinsmobility totalTime 23
scalar RSUExampleScenario.node[32].veinsmobility stopTime 177
scalar RSUExampleScenario.node[32].veinsmobility minSpeed 10.472819292118
scalar RSUExampleScenario.node[32].veinsmobility maxSpeed 11.311410009224
scalar RSUExampleScenario.node[32].veinsmobility totalDistance 251.26261042089
scalar RSUExampleScenario.node[32].veinsmobility totalCO2Emission 42.062113177975
scalar RSUExampleScenario.node[34].appl generatedWSMs 0
scalar RSUExampleScenario.node[34].appl receivedWSMs 0
scalar RSUExampleScenario.node[34].appl generatedBSMs 0
scalar RSUExampleScenario.node[34].appl receivedBSMs 0
scalar RSUExampleScenario.node[34].appl generatedWSAs 0
scalar RSUExampleScenario.node[34].appl receivedWSAs 0
scalar RSUExampleScenario.node[34].nic.phy80211p busyTime 0
scalar RSUExampleScenario.node[34].nic.mac1609_4 ReceivedUnicastPackets 0
scalar RSUExampleScenario.node[34].nic.mac1609_4 ReceivedBroadcasts 0
scalar RSUExampleScenario.node[34].nic.mac1609_4 SentPackets 0
scalar RSUExampleScenario.node[34].nic.mac1609_4 SentAcknowledgements 0
scalar RSUExampleScenario.node[34].nic.mac1609_4 SNIRLostPackets 0
scalar RSUExampleScenario.node[34].nic.mac1609_4 RXTXLostPackets 0
scalar RSUExampleScenario.node[34].nic.mac1609_4 TotalLostPackets 0
scalar RSUExampleScenario.node[34].nic.mac1609_4 DroppedPacketsInMac 0
scalar RSUExampleScenario.node[34].nic.mac1609_4 TooLittleTime 0
scalar RSUExampleScenario.node[34].nic.mac1609_4 TimesIntoBackoff 0
scalar RSUExampleScenario.node[34].nic.mac1609_4 SlotsBackoff 0
scalar RSUExampleScenario.node[34].nic.mac1609_4 NumInternalContention 0
scalar RSUExampleScenario.node[34].nic.mac1609_4 totalBusyTime 0
scalar RSUExampleScenario.node[34].veinsmobility startTime 160
scalar RSUExampleScenario.node[34].veinsmobility totalTime 18
scalar RSUExampleScenario.node[34].veinsmobility stopTime 179
scalar RSUExampleScenario.node[34].veinsmobility minSpeed 13.014254528956
scalar RSUExampleScenario.node[34].veinsmobility maxSpeed 14.245018096288
scalar RSUExampleScenario.node[34].veinsmobility totalDistance 244.93042079612
scalar RSUExampleScenario.node[34].veinsmobility totalCO2Emission 39.63493972061
scalar RSUExampleScenario.node[33].appl generatedWSMs 0
scalar RSUExampleScenario.node[33].appl receivedWSMs 0
scalar RSUExampleScenario.node[33].appl generatedBSMs 0
scalar RSUExampleScenario.node[33].appl receivedBSMs 0
scalar RSUExampleScenario.node[33].appl generatedWSAs 0
scalar RSUExampleScenario.node[33].appl receivedWSAs 0
scalar RSUExampleScenario.node[33].nic.phy80211p busyTime 0
scalar RSUExampleScenario.node[33].nic.mac1609_4 ReceivedUnicastPackets 0
scalar RSUExampleScenario.node[33].nic.mac1609_4 ReceivedBroadcasts 0
scalar RSUExampleScenario.node[33].nic.mac1609_4 SentPackets 0
scalar RSUExampleScenario.node[33].nic.mac1609_4 SentAcknowledgements 0
scalar RSUExampleScenario.node[33].nic.mac1609_4 SNIRLostPackets 0
scalar RSUExampleScenario.node[33].nic.mac1609_4 RXTXLostPackets 0
scalar RSUExampleScenario.node[33].nic.mac1609_4 TotalLostPackets 0
scalar RSUExampleScenario.node[33].nic.mac1609_4 DroppedPacketsInMac 0
scalar RSUExampleScenario.node[33].nic.mac1609_4 TooLittleTime 0
scalar RSUExampleScenario.node[33].nic.mac1609_4 TimesIntoBackoff 0
scalar RSUExampleScenario.node[33].nic.mac1609_4 SlotsBackoff 0
scalar RSUExampleScenario.node[33].nic.mac1609_4 NumInternalContention 0
scalar RSUExampleScenario.node[33].nic.mac1609_4 totalBusyTime 0
scalar RSUExampleScenario.node[33].veinsmobility startTime 160
scalar RSUExampleScenario.node[33].veinsmobility totalTime 22
scalar RSUExampleScenario.node[33].veinsmobility stopTime 183
scalar RSUExampleScenario.node[33].veinsmobility minSpeed 2.4423989851025
scalar RSUExampleScenario.node[33].veinsmobility maxSpeed 13.627265396758
scalar RSUExampleScenario.node[33].veinsmobility totalDistance 244.47458842122
scalar RSUExampleScenario.node[33].veinsmobility totalCO2Emission 59.405967748955
scalar RSUExampleScenario.node[35].appl generatedWSMs 0
scalar RSUExampleScenario.node[35].appl receivedWSMs 0
scalar RSUExampleScenario.node[35].appl generatedBSMs 0
scalar RSUExampleScenario.node[35].appl receivedBSMs 0
scalar RSUExampleScenario.node[35].appl generatedWSAs 0
scalar RSUExampleScenario.node[35].appl receivedWSAs 0
scalar RSUExampleScenario.node[35].nic.phy80211p busyTime 0
scalar RSUExampleScenario.node[35].nic.mac1609_4 ReceivedUnicastPackets 0
scalar RSUExampleScenario.node[35].nic.mac1609_4 ReceivedBroadcasts 0
scalar RSUExampleScenario.node[35].nic.mac1609_4 SentPackets 0
scalar RSUExampleScenario.node[35].nic.mac1609_4 SentAcknowledgements 0
scalar RSUExampleScenario.node[35].nic.mac1609_4 SNIRLostPackets 0
scalar RSUExampleScenario.node[35].nic.mac1609_4 RXTXLostPackets 0
scalar RSUExampleScenario.node[35].nic.mac1609_4 TotalLostPackets 0
scalar RSUExampleScenario.node[35].nic.mac1609_4 DroppedPacketsInMac 0
scalar RSUExampleScenario.node[35].nic.mac1609_4 TooLittleTime 0
scalar RSUExampleScenario.node[35].nic.mac1609_4 TimesIntoBackoff 0
scalar RSUExampleScenario.node[35].nic.mac1609_4 SlotsBackoff 0
scalar RSUExampleScenario.node[35].nic.mac1609_4 NumInternalContention 0
scalar RSUExampleScenario.node[35].nic.mac1609_4 totalBusyTime 0
scalar RSUExampleScenario.node[35].veinsmobility startTime 167
scalar RSUExampleScenario.node[35].veinsmobility totalTime 17
scalar RSUExampleScenario.node[35].veinsmobility stopTime 185
scalar RSUExampleScenario.node[35].veinsmobility minSpeed 14.448035585916
scalar RSUExampleScenario.node[35].veinsmobility maxSpeed 15.656912884571
scalar RSUExampleScenario.node[35].veinsmobility totalDistance 254.09091413525
scalar RSUExampleScenario.node[35].veinsmobility totalCO2Emission 40.777159565368
scalar RSUExampleScenario.node[37].appl generatedWSMs 0
scalar RSUExampleScenario.node[37].appl receivedWSMs 0
scalar RSUExampleScenario.node[37].appl generatedBSMs 0
scalar RSUExampleScenario.node[37].appl receivedBSMs 0
scalar RSUExampleScenario.node[37].appl generatedWSAs 0
scalar RSUExampleScenario.node[37].appl receivedWSAs 0
scalar RSUExampleScenario.node[37].nic.phy80211p busyTime 0
scalar RSUExampleScenario.node[37].nic.mac1609_4 ReceivedUnicastPackets 0
scalar RSUExampleScenario.node[37].nic.mac1609_4 ReceivedBroadcasts 0
scalar RSUExampleScenario.node[37].nic.mac1609_4 SentPackets 0
scalar RSUExampleScenario.node[37].nic.mac1609_4 SentAcknowledgements 0
scalar RSUExampleScenario.node[37].nic.mac1609_4 SNIRLostPackets 0
scalar RSUExampleScenario.node[37].nic.mac1609_4 RXTXLostPackets 0
scalar RSUExampleScenario.node[37].nic.mac1609_4 TotalLostPackets 0
scalar RSUExampleScenario.node[37].nic.mac1609_4 DroppedPacketsInMac 0
scalar RSUExampleScenario.node[37].nic.mac1609_4 TooLittleTime 0
scalar RSUExampleScenario.node[37].nic.mac1609_4 TimesIntoBackoff 0
scalar RSUExampleScenario.node[37].nic.mac1609_4 SlotsBackoff 0
scalar RSUExampleScenario.node[37].nic.mac1609_4 NumInternalContention 0
scalar RSUExampleScenario.node[37].nic.mac1609_4 totalBusyTime 0
scalar RSUExampleScenario.node[37].veinsmobility startTime 174
scalar RSUExampleScenario.node[37].veinsmobility totalTime 22
scalar RSUExampleScenario.node[37].veinsmobility stopTime 197
scalar RSUExampleScenario.node[37].veinsmobility minSpeed 10.99737618275
scalar RSUExampleScenario.node[37].veinsmobility maxSpeed 12.204838792775
scalar RSUExampleScenario.node[37].veinsmobility totalDistance 255.80251214972
scalar RSUExampleScenario.node[37].veinsmobility totalCO2Emission 49.30434466157
scalar RSUExampleScenario.node[36].appl generatedWSMs 0
scalar RSUExampleScenario.node[36].appl receivedWSMs 0
scalar RSUExampleScenario.node[36].appl generatedBSMs 0
scalar RSUExampleScenario.node[36].appl receivedBSMs 0
scalar RSUExampleScenario.node[36].appl generatedWSAs 0
scalar RSUExampleScenario.node[36].appl receivedWSAs 0
scalar RSUExampleScenario.node[36].nic.phy80211p busyTime 0
scalar RSUExampleScenario.node[36].nic.mac1609_4 ReceivedUnicastPackets 0
scalar RSUExampleScenario.node[36].nic.mac1609_4 ReceivedBroadcasts 0
scalar RSUExampleScenario.node[36].nic.mac1609_4 SentPackets 0
scalar RSUExampleScenario.node[36].nic.mac1609_4 SentAcknowledgements 0
scalar RSUExampleScenario.node[36].nic.mac1609_4 SNIRLostPackets 0
scalar RSUExampleScenario.node[36].nic.mac1609_4 RXTXLostPackets 0
scalar RSUExampleScenario.node[36].nic.mac1609_4 TotalLostPackets 0
scalar RSUExampleScenario.node[36].nic.mac1609_4 DroppedPacketsInMac 0
scalar RSUExampleScenario.node[36].nic.mac1609_4 TooLittleTime 0
scalar RSUExampleScenario.node[36].nic.mac1609_4 TimesIntoBackoff 0
scalar RSUExampleScenario.node[36].nic.mac1609_4 SlotsBackoff 0
scalar RSUExampleScenario.node[36].nic.mac1609_4 NumInternalContention 0
scalar RSUExampleScenario.node[36].nic.mac1609_4 totalBusyTime 0
scalar RSUExampleScenario.node[36].veinsmobility startTime 174
scalar RSUExampleScenario.node[36].veinsmobility totalTime 24
scalar RSUExampleScenario.node[36].veinsmobility stopTime 199
scalar RSUExampleScenario.node[36].veinsmobility minSpeed 0.1176290207158
scalar RSUExampleScenario.node[36].veinsmobility maxSpeed 14.458771842972
scalar RSUExampleScenario.node[36].veinsmobility totalDistance 242.19668132045
scalar RSUExampleScenario.node[36].veinsmobility totalCO2Emission 67.557796875391
scalar RSUExampleScenario.node[38].appl generatedWSMs 0
scalar RSUExampleScenario.node[38].appl receivedWSMs 0
scalar RSUExampleScenario.node[38].appl generatedBSMs 0
scalar RSUExampleScenario.node[38].appl receivedBSMs 0
scalar RSUExampleScenario.node[38].appl generatedWSAs 0
scalar RSUExampleScenario.node[38].appl receivedWSAs 0
scalar RSUExampleScenario.node[38].nic.phy80211p busyTime 0
scalar RSUExampleScenario.node[38].nic.mac1609_4 ReceivedUnicastPackets 0
scalar RSUExampleScenario.node[38].nic.mac1609_4 ReceivedBroadcasts 0
scalar RSUExampleScenario.node[38].nic.mac1609_4 SentPackets 0
scalar RSUExampleScenario.node[38].nic.mac1609_4 SentAcknowledgements 0
scalar RSUExampleScenario.node[38].nic.mac1609_4 SNIRLostPackets 0
scalar RSUExampleScenario.node[38].nic.mac1609_4 RXTXLostPackets 0
scalar RSUExampleScenario.node[38].nic.mac1609_4 TotalLostPackets 0
scalar RSUExampleScenario.node[38].nic.mac1609_4 DroppedPacketsInMac 0
scalar RSUExampleScenario.node[38].nic.mac1609_4 TooLittleTime 0
scalar RSUExampleScenario.node[38].nic.mac1609_4 TimesIntoBackoff 0
scalar RSUExampleScenario.node[38].nic.mac1609_4 SlotsBackoff 0
scalar RSUExampleScenario.node[38].nic.mac1609_4 NumInternalContention 0
scalar RSUExampleScenario.node[38].nic.mac1609_4 totalBusyTime 0
scalar RSUExampleScenario.node[38].veinsmobility startTime 181
scalar RSUExampleScenario.node[38].veinsmobility totalTime 20
scalar RSUExampleScenario.node[38].veinsmobility stopTime 202
scalar RSUExampleScenario.node[38].veinsmobility minSpeed 11.866975154126
scalar RSUExampleScenario.node[38].veinsmobility maxSpeed 13.051385201657
scalar RSUExampleScenario.node[38].veinsmobility totalDistance 246.41295010809
scalar RSUExampleScenario.node[38].veinsmobility totalCO2Emission 43.252790237611
scalar RSUExampleScenario.node[40].appl generatedWSMs 0
scalar RSUExampleScenario.node[40].appl receivedWSMs 0
scalar RSUExampleScenario.node[40].appl generatedBSMs 0
scalar RSUExampleScenario.node[40].appl receivedBSMs 0
scalar RSUExampleScenario.node[40].appl generatedWSAs 0
scalar RSUExampleScenario.node[40].appl receivedWSAs 0
scalar RSUExampleScenario.node[40].nic.phy80211p busyTime 0
scalar RSUExampleScenario.node[40].nic.mac1609_4 ReceivedUnicastPackets 0
scalar RSUExampleScenario.node[40].nic.mac1609_4 ReceivedBroadcasts 0
scalar RSUExampleScenario.node[40].nic.mac1609_4 SentPackets 0
scalar RSUExampleScenario.node[40].nic.mac1609_4 SentAcknowledgements 0
scalar RSUExampleScenario.node[40].nic.mac1609_4 SNIRLostPackets 0
scalar RSUExampleScenario.node[40].nic.mac1609_4 RXTXLostPackets 0
scalar RSUExampleScenario.node[40].nic.mac1609_4 TotalLostPackets 0
scalar RSUExampleScenario.node[40].nic.mac1609_4 DroppedPacketsInMac 0
scalar RSUExampleScenario.node[40].nic.mac1609_4 TooLittleTime 0
scalar RSUExampleScenario.node[40].nic.mac1609_4 TimesIntoBackoff 0
scalar RSUExampleScenario.node[40].nic.mac1609_4 SlotsBackoff 0
scalar RSUExampleScenario.node[40].nic.mac1609_4 NumInternalContention 0
scalar RSUExampleScenario.node[40].nic.mac1609_4 totalBusyTime 0
scalar RSUExampleScenario.node[40].veinsmobility startTime 189
scalar RSUExampleScenario.node[40].veinsmobility totalTime 21
scalar RSUExampleScenario.node[40].veinsmobility stopTime 211
scalar RSUExampleScenario.node[40].veinsmobility minSpeed 11.221126035988
scalar RSUExampleScenario.node[40].veinsmobility maxSpeed 12.258370778724
scalar RSUExampleScenario.node[40].veinsmobility totalDistance 246.88820819889
scalar RSUExampleScenario.node[40].veinsmobility totalCO2Emission 42.418551141797
scalar RSUExampleScenario.node[41].appl generatedWSMs 0
scalar RSUExampleScenario.node[41].appl receivedWSMs 0
scalar RSUExampleScenario.node[41].appl generatedBSMs 0
scalar RSUExampleScenario.node[41].appl receivedBSMs 0
scalar RSUExampleScenario.node[41].appl generatedWSAs 0
scalar RSUExampleScenario.node[41].appl receivedWSAs 0
scalar RSUExampleScenario.node[41].nic.phy80211p busyTime 0
scalar RSUExampleScenario.node[41].nic.mac1609_4 ReceivedUnicastPackets 0
scalar RSUExampleScenario.node[41].nic.mac1609_4 ReceivedBroadcasts 0
scalar RSUExampleScenario.node[41].nic.mac1609_4 SentPackets 0
scalar RSUExampleScenario.node[41].nic.mac1609_4 SentAcknowledgements 0
scalar RSUExampleScenario.node[41].nic.mac1609_4 SNIRLostPackets 0
scalar RSUExampleScenario.node[41].nic.mac1609_4 RXTXLostPackets 0
scalar RSUExampleScenario.node[41].nic.mac1609_4 TotalLostPackets 0
scalar RSUExampleScenario.node[41].nic.mac1609_4 DroppedPacketsInMac 0
scalar RSUExampleScenario.node[41].nic.mac1609_4 TooLittleTime 0
scalar RSUExampleScenario.node[41].nic.mac1609_4 TimesIntoBackoff 0
scalar RSUExampleScenario.node[41].nic.mac1609_4 SlotsBackoff 0
scalar RSUExampleScenario.node[41].nic.mac1609_4 NumInternalContention 0
scalar RSUExampleScenario.node[41].nic.mac1609_4 totalBusyTime 0
scalar RSUExampleScenario.node[41].veinsmobility startTime 196
scalar RSUExampleScenario.node[41].veinsmobility totalTime 19
scalar RSUExampleScenario.node[41].veinsmobility stopTime 216
scalar RSUExampleScenario.node[41].veinsmobility minSpeed 12.701918359145
scalar RSUExampleScenario.node[41].veinsmobility maxSpeed 13.943574311698
scalar RSUExampleScenario.node[41].veinsmobility totalDistance 253.33691279564
scalar RSUExampleScenario.node[41].veinsmobility totalCO2Emission 41.471866760209
scalar RSUExampleScenario.node[39].appl generatedWSMs 0
scalar RSUExampleScenario.node[39].appl receivedWSMs 0
scalar RSUExampleScenario.node[39].appl generatedBSMs 0
scalar RSUExampleScenario.node[39].appl receivedBSMs 0
scalar RSUExampleScenario.node[39].appl generatedWSAs 0
scalar RSUExampleScenario.node[39].appl receivedWSAs 0
scalar RSUExampleScenario.node[39].nic.phy80211p busyTime 0
scalar RSUExampleScenario.node[39].nic.mac1609_4 ReceivedUnicastPackets 0
scalar RSUExampleScenario.node[39].nic.mac1609_4 ReceivedBroadcasts 0
scalar RSUExampleScenario.node[39].nic.mac1609_4 SentPackets 0
scalar RSUExampleScenario.node[39].nic.mac1609_4 SentAcknowledgements 0
scalar RSUExampleScenario.node[39].nic.mac1609_4 SNIRLostPackets 0
scalar RSUExampleScenario.node[39].nic.mac1609_4 RXTXLostPackets 0
scalar RSUExampleScenario.node[39].nic.mac1609_4 TotalLostPackets 0
scalar RSUExampleScenario.node[39].nic.mac1609_4 DroppedPacketsInMac 0
scalar RSUExampleScenario.node[39].nic.mac1609_4 TooLittleTime 0
scalar RSUExampleScenario.node[39].nic.mac1609_4 TimesIntoBackoff 0
scalar RSUExampleScenario.node[39].nic.mac1609_4 SlotsBackoff 0
scalar RSUExampleScenario.node[39].nic.mac1609_4 NumInternalContention 0
scalar RSUExampleScenario.node[39].nic.mac1609_4 totalBusyTime 0
scalar RSUExampleScenario.node[39].veinsmobility startTime 189
scalar RSUExampleScenario.node[39].veinsmobility totalTime 33
scalar RSUExampleScenario.node[39].veinsmobility stopTime 223
scalar RSUExampleScenario.node[39].veinsmobility minSpeed 0
scalar RSUExampleScenario.node[39].veinsmobility maxSpeed 11.651291440682
scalar RSUExampleScenario.node[39].veinsmobility totalDistance 241.62766777022
scalar RSUExampleScenario.node[39].veinsmobility totalCO2Emission 67.041857561183
scalar RSUExampleScenario.node[43].appl generatedWSMs 0
scalar RSUExampleScenario.node[43].appl receivedWSMs 0
scalar RSUExampleScenario.node[43].appl generatedBSMs 0
scalar RSUExampleScenario.node[43].appl receivedBSMs 0
scalar RSUExampleScenario.node[43].appl generatedWSAs 0
scalar RSUExampleScenario.node[43].appl receivedWSAs 0
scalar RSUExampleScenario.node[43].nic.phy80211p busyTime 0
scalar RSUExampleScenario.node[43].nic.mac1609_4 ReceivedUnicastPackets 0
scalar RSUExampleScenario.node[43].nic.mac1609_4 ReceivedBroadcasts 0
scalar RSUExampleScenario.node[43].nic.mac1609_4 SentPackets 0
scalar RSUExampleScenario.node[43].nic.mac1609_4 SentAcknowledgements 0
scalar RSUExampleScenario.node[43].nic.mac1609_4 SNIRLostPackets 0
scalar RSUExampleScenario.node[43].nic.mac1609_4 RXTXLostPackets 0
scalar RSUExampleScenario.node[43].nic.mac1609_4 TotalLostPackets 0
scalar RSUExampleScenario.node[43].nic.mac1609_4 DroppedPacketsInMac 0
scalar RSUExampleScenario.node[43].nic.mac1609_4 TooLittleTime 0
scalar RSUExampleScenario.node[43].nic.mac1609_4 TimesIntoBackoff 0
scalar RSUExampleScenario.node[43].nic.mac1609_4 SlotsBackoff 0
scalar RSUExampleScenario.node[43].nic.mac1609_4 NumInternalContention 0
scalar RSUExampleScenario.node[43].nic.mac1609_4 totalBusyTime 0
scalar RSUExampleScenario.node[43].veinsmobility startTime 203
scalar RSUExampleScenario.node[43].veinsmobility totalTime 21
scalar RSUExampleScenario.node[43].veinsmobility stopTime 225
scalar RSUExampleScenario.node[43].veinsmobility minSpeed 11.259031195237
scalar RSUExampleScenario.node[43].veinsmobility maxSpeed 12.746682884883
scalar RSUExampleScenario.node[43].veinsmobility totalDistance 252.74867413662
scalar RSUExampleScenario.node[43].veinsmobility totalCO2Emission 46.897538373644
scalar RSUExampleScenario.node[42].appl generatedWSMs 0
scalar RSUExampleScenario.node[42].appl receivedWSMs 0
scalar RSUExampleScenario.node[42].appl generatedBSMs 0
scalar RSUExampleScenario.node[42].appl receivedBSMs 0
scalar RSUExampleScenario.node[42].appl generatedWSAs 0
scalar RSUExampleScenario.node[42].appl receivedWSAs 0
scalar RSUExampleScenario.node[42].nic.phy80211p busyTime 0
[...]
scalar RSUExampleScenario.node[55].veinsmobility totalDistance 245.24651901525
scalar RSUExampleScenario.node[55].veinsmobility totalCO2Emission 41.578200378993
scalar RSUExampleScenario.node[54].appl generatedWSMs 0
scalar RSUExampleScenario.node[54].appl receivedWSMs 0
scalar RSUExampleScenario.node[54].appl generatedBSMs 0
scalar RSUExampleScenario.node[54].appl receivedBSMs 0
scalar RSUExampleScenario.node[54].appl generatedWSAs 0
scalar RSUExampleScenario.node[54].appl receivedWSAs 0
scalar RSUExampleScenario.node[54].nic.phy80211p busyTime 0
scalar RSUExampleScenario.node[54].nic.mac1609_4 ReceivedUnicastPackets 0
scalar RSUExampleScenario.node[54].nic.mac1609_4 ReceivedBroadcasts 0
scalar RSUExampleScenario.node[54].nic.mac1609_4 SentPackets 0
scalar RSUExampleScenario.node[54].nic.mac1609_4 SentAcknowledgements 0
scalar RSUExampleScenario.node[54].nic.mac1609_4 SNIRLostPackets 0
scalar RSUExampleScenario.node[54].nic.mac1609_4 RXTXLostPackets 0
scalar RSUExampleScenario.node[54].nic.mac1609_4 TotalLostPackets 0
scalar RSUExampleScenario.node[54].nic.mac1609_4 DroppedPacketsInMac 0
scalar RSUExampleScenario.node[54].nic.mac1609_4 TooLittleTime 0
scalar RSUExampleScenario.node[54].nic.mac1609_4 TimesIntoBackoff 0
scalar RSUExampleScenario.node[54].nic.mac1609_4 SlotsBackoff 0
scalar RSUExampleScenario.node[54].nic.mac1609_4 NumInternalContention 0
scalar RSUExampleScenario.node[54].nic.mac1609_4 totalBusyTime 0
scalar RSUExampleScenario.node[54].veinsmobility startTime 261
scalar RSUExampleScenario.node[54].veinsmobility totalTime 22
scalar RSUExampleScenario.node[54].veinsmobility stopTime 284
scalar RSUExampleScenario.node[54].veinsmobility minSpeed 3.6605876405585
scalar RSUExampleScenario.node[54].veinsmobility maxSpeed 12.707057138055
scalar RSUExampleScenario.node[54].veinsmobility totalDistance 236.22936713935
scalar RSUExampleScenario.node[54].veinsmobility totalCO2Emission 57.132993634312
scalar RSUExampleScenario.node[56].appl generatedWSMs 0
scalar RSUExampleScenario.node[56].appl receivedWSMs 0
scalar RSUExampleScenario.node[56].appl generatedBSMs 0
scalar RSUExampleScenario.node[56].appl receivedBSMs 0
scalar RSUExampleScenario.node[56].appl generatedWSAs 0
scalar RSUExampleScenario.node[56].appl receivedWSAs 0
scalar RSUExampleScenario.node[56].nic.phy80211p busyTime 0
scalar RSUExampleScenario.node[56].nic.mac1609_4 ReceivedUnicastPackets 0
scalar RSUExampleScenario.node[56].nic.mac1609_4 ReceivedBroadcasts 0
scalar RSUExampleScenario.node[56].nic.mac1609_4 SentPackets 0
scalar RSUExampleScenario.node[56].nic.mac1609_4 SentAcknowledgements 0
scalar RSUExampleScenario.node[56].nic.mac1609_4 SNIRLostPackets 0
scalar RSUExampleScenario.node[56].nic.mac1609_4 RXTXLostPackets 0
scalar RSUExampleScenario.node[56].nic.mac1609_4 TotalLostPackets 0
scalar RSUExampleScenario.node[56].nic.mac1609_4 DroppedPacketsInMac 0
scalar RSUExampleScenario.node[56].nic.mac1609_4 TooLittleTime 0
scalar RSUExampleScenario.node[56].nic.mac1609_4 TimesIntoBackoff 0
scalar RSUExampleScenario.node[56].nic.mac1609_4 SlotsBackoff 0
scalar RSUExampleScenario.node[56].nic.mac1609_4 NumInternalContention 0
scalar RSUExampleScenario.node[56].nic.mac1609_4 totalBusyTime 0
scalar RSUExampleScenario.node[56].veinsmobility startTime 268
scalar RSUExampleScenario.node[56].veinsmobility totalTime 29
scalar RSUExampleScenario.node[56].veinsmobility stopTime 298
scalar RSUExampleScenario.node[56].veinsmobility minSpeed 8.2203422063824
scalar RSUExampleScenario.node[56].veinsmobility maxSpeed 9.4856869747259
scalar RSUExampleScenario.node[56].veinsmobility totalDistance 256.05255832481
scalar RSUExampleScenario.node[56].veinsmobility totalCO2Emission 52.05658794726
scalar RSUExampleScenario.node[58].appl generatedWSMs 0
scalar RSUExampleScenario.node[58].appl receivedWSMs 0
scalar RSUExampleScenario.node[58].appl generatedBSMs 0
scalar RSUExampleScenario.node[58].appl receivedBSMs 0
scalar RSUExampleScenario.node[58].appl generatedWSAs 0
scalar RSUExampleScenario.node[58].appl receivedWSAs 0
scalar RSUExampleScenario.node[58].nic.phy80211p busyTime 0
scalar RSUExampleScenario.node[58].nic.mac1609_4 ReceivedUnicastPackets 0
scalar RSUExampleScenario.node[58].nic.mac1609_4 ReceivedBroadcasts 0
scalar RSUExampleScenario.node[58].nic.mac1609_4 SentPackets 0
scalar RSUExampleScenario.node[58].nic.mac1609_4 SentAcknowledgements 0
scalar RSUExampleScenario.node[58].nic.mac1609_4 SNIRLostPackets 0
scalar RSUExampleScenario.node[58].nic.mac1609_4 RXTXLostPackets 0
scalar RSUExampleScenario.node[58].nic.mac1609_4 TotalLostPackets 0
scalar RSUExampleScenario.node[58].nic.mac1609_4 DroppedPacketsInMac 0
scalar RSUExampleScenario.node[58].nic.mac1609_4 TooLittleTime 0
scalar RSUExampleScenario.node[58].nic.mac1609_4 TimesIntoBackoff 0
scalar RSUExampleScenario.node[58].nic.mac1609_4 SlotsBackoff 0
scalar RSUExampleScenario.node[58].nic.mac1609_4 NumInternalContention 0
scalar RSUExampleScenario.node[58].nic.mac1609_4 totalBusyTime 0
scalar RSUExampleScenario.node[58].veinsmobility startTime 275
scalar RSUExampleScenario.node[58].veinsmobility totalTime 23
scalar RSUExampleScenario.node[58].veinsmobility stopTime 299
scalar RSUExampleScenario.node[58].veinsmobility minSpeed 8.0003609046957
scalar RSUExampleScenario.node[58].veinsmobility maxSpeed 13.117214942843
scalar RSUExampleScenario.node[58].veinsmobility totalDistance 247.16684987981
scalar RSUExampleScenario.node[58].veinsmobility totalCO2Emission 40.571215566677
scalar RSUExampleScenario.node[57].appl generatedWSMs 0
scalar RSUExampleScenario.node[57].appl receivedWSMs 0
scalar RSUExampleScenario.node[57].appl generatedBSMs 0
scalar RSUExampleScenario.node[57].appl receivedBSMs 0
scalar RSUExampleScenario.node[57].appl generatedWSAs 0
scalar RSUExampleScenario.node[57].appl receivedWSAs 0
scalar RSUExampleScenario.node[57].nic.phy80211p busyTime 0
scalar RSUExampleScenario.node[57].nic.mac1609_4 ReceivedUnicastPackets 0
scalar RSUExampleScenario.node[57].nic.mac1609_4 ReceivedBroadcasts 0
scalar RSUExampleScenario.node[57].nic.mac1609_4 SentPackets 0
scalar RSUExampleScenario.node[57].nic.mac1609_4 SentAcknowledgements 0
scalar RSUExampleScenario.node[57].nic.mac1609_4 SNIRLostPackets 0
scalar RSUExampleScenario.node[57].nic.mac1609_4 RXTXLostPackets 0
scalar RSUExampleScenario.node[57].nic.mac1609_4 TotalLostPackets 0
scalar RSUExampleScenario.node[57].nic.mac1609_4 DroppedPacketsInMac 0
scalar RSUExampleScenario.node[57].nic.mac1609_4 TooLittleTime 0
scalar RSUExampleScenario.node[57].nic.mac1609_4 TimesIntoBackoff 0
scalar RSUExampleScenario.node[57].nic.mac1609_4 SlotsBackoff 0
scalar RSUExampleScenario.node[57].nic.mac1609_4 NumInternalContention 0
scalar RSUExampleScenario.node[57].nic.mac1609_4 totalBusyTime 0
scalar RSUExampleScenario.node[57].veinsmobility startTime 275
scalar RSUExampleScenario.node[57].veinsmobility totalTime 25
scalar RSUExampleScenario.node[57].veinsmobility stopTime 301
scalar RSUExampleScenario.node[57].veinsmobility minSpeed 0.011913091965042
scalar RSUExampleScenario.node[57].veinsmobility maxSpeed 16.935797636586
scalar RSUExampleScenario.node[57].veinsmobility totalDistance 237.16146250496
scalar RSUExampleScenario.node[57].veinsmobility totalCO2Emission 81.281509120324
scalar RSUExampleScenario.node[59].appl generatedWSMs 0
scalar RSUExampleScenario.node[59].appl receivedWSMs 0
scalar RSUExampleScenario.node[59].appl generatedBSMs 0
scalar RSUExampleScenario.node[59].appl receivedBSMs 0
scalar RSUExampleScenario.node[59].appl generatedWSAs 0
scalar RSUExampleScenario.node[59].appl receivedWSAs 0
scalar RSUExampleScenario.node[59].nic.phy80211p busyTime 0
scalar RSUExampleScenario.node[59].nic.mac1609_4 ReceivedUnicastPackets 0
scalar RSUExampleScenario.node[59].nic.mac1609_4 ReceivedBroadcasts 0
scalar RSUExampleScenario.node[59].nic.mac1609_4 SentPackets 0
scalar RSUExampleScenario.node[59].nic.mac1609_4 SentAcknowledgements 0
scalar RSUExampleScenario.node[59].nic.mac1609_4 SNIRLostPackets 0
scalar RSUExampleScenario.node[59].nic.mac1609_4 RXTXLostPackets 0
scalar RSUExampleScenario.node[59].nic.mac1609_4 TotalLostPackets 0
scalar RSUExampleScenario.node[59].nic.mac1609_4 DroppedPacketsInMac 0
scalar RSUExampleScenario.node[59].nic.mac1609_4 TooLittleTime 0
scalar RSUExampleScenario.node[59].nic.mac1609_4 TimesIntoBackoff 0
scalar RSUExampleScenario.node[59].nic.mac1609_4 SlotsBackoff 0
scalar RSUExampleScenario.node[59].nic.mac1609_4 NumInternalContention 0
scalar RSUExampleScenario.node[59].nic.mac1609_4 totalBusyTime 0
scalar RSUExampleScenario.node[59].veinsmobility startTime 282
scalar RSUExampleScenario.node[59].veinsmobility totalTime 21
scalar RSUExampleScenario.node[59].veinsmobility stopTime 304
scalar RSUExampleScenario.node[59].veinsmobility minSpeed 9.8576198309913
scalar RSUExampleScenario.node[59].veinsmobility maxSpeed 12.654407144894
scalar RSUExampleScenario.node[59].veinsmobility totalDistance 249.59107124535
scalar RSUExampleScenario.node[59].veinsmobility totalCO2Emission 45.928876800786
scalar RSUExampleScenario.node[61].appl generatedWSMs 0
scalar RSUExampleScenario.node[61].appl receivedWSMs 0
scalar RSUExampleScenario.node[61].appl generatedBSMs 0
scalar RSUExampleScenario.node[61].appl receivedBSMs 0
scalar RSUExampleScenario.node[61].appl generatedWSAs 0
scalar RSUExampleScenario.node[61].appl receivedWSAs 0
scalar RSUExampleScenario.node[61].nic.phy80211p busyTime 0
scalar RSUExampleScenario.node[61].nic.mac1609_4 ReceivedUnicastPackets 0
scalar RSUExampleScenario.node[61].nic.mac1609_4 ReceivedBroadcasts 0
scalar RSUExampleScenario.node[61].nic.mac1609_4 SentPackets 0
scalar RSUExampleScenario.node[61].nic.mac1609_4 SentAcknowledgements 0
scalar RSUExampleScenario.node[61].nic.mac1609_4 SNIRLostPackets 0
scalar RSUExampleScenario.node[61].nic.mac1609_4 RXTXLostPackets 0
scalar RSUExampleScenario.node[61].nic.mac1609_4 TotalLostPackets 0
scalar RSUExampleScenario.node[61].nic.mac1609_4 DroppedPacketsInMac 0
scalar RSUExampleScenario.node[61].nic.mac1609_4 TooLittleTime 0
scalar RSUExampleScenario.node[61].nic.mac1609_4 TimesIntoBackoff 0
scalar RSUExampleScenario.node[61].nic.mac1609_4 SlotsBackoff 0
scalar RSUExampleScenario.node[61].nic.mac1609_4 NumInternalContention 0
scalar RSUExampleScenario.node[61].nic.mac1609_4 totalBusyTime 0
scalar RSUExampleScenario.node[61].veinsmobility startTime 289
scalar RSUExampleScenario.node[61].veinsmobility totalTime 21
scalar RSUExampleScenario.node[61].veinsmobility stopTime 311
scalar RSUExampleScenario.node[61].veinsmobility minSpeed 11.599547724304
scalar RSUExampleScenario.node[61].veinsmobility maxSpeed 12.832862616605
scalar RSUExampleScenario.node[61].veinsmobility totalDistance 255.08893049515
scalar RSUExampleScenario.node[61].veinsmobility totalCO2Emission 39.328679190715
scalar RSUExampleScenario.node[60].appl generatedWSMs 0
scalar RSUExampleScenario.node[60].appl receivedWSMs 0
scalar RSUExampleScenario.node[60].appl generatedBSMs 0
scalar RSUExampleScenario.node[60].appl receivedBSMs 0
scalar RSUExampleScenario.node[60].appl generatedWSAs 0
scalar RSUExampleScenario.node[60].appl receivedWSAs 0
scalar RSUExampleScenario.node[60].nic.phy80211p busyTime 0
scalar RSUExampleScenario.node[60].nic.mac1609_4 ReceivedUnicastPackets 0
scalar RSUExampleScenario.node[60].nic.mac1609_4 ReceivedBroadcasts 0
scalar RSUExampleScenario.node[60].nic.mac1609_4 SentPackets 0
scalar RSUExampleScenario.node[60].nic.mac1609_4 SentAcknowledgements 0
scalar RSUExampleScenario.node[60].nic.mac1609_4 SNIRLostPackets 0
scalar RSUExampleScenario.node[60].nic.mac1609_4 RXTXLostPackets 0
scalar RSUExampleScenario.node[60].nic.mac1609_4 TotalLostPackets 0
scalar RSUExampleScenario.node[60].nic.mac1609_4 DroppedPacketsInMac 0
scalar RSUExampleScenario.node[60].nic.mac1609_4 TooLittleTime 0
scalar RSUExampleScenario.node[60].nic.mac1609_4 TimesIntoBackoff 0
scalar RSUExampleScenario.node[60].nic.mac1609_4 SlotsBackoff 0
scalar RSUExampleScenario.node[60].nic.mac1609_4 NumInternalContention 0
scalar RSUExampleScenario.node[60].nic.mac1609_4 totalBusyTime 0
scalar RSUExampleScenario.node[60].veinsmobility startTime 289
scalar RSUExampleScenario.node[60].veinsmobility totalTime 25
scalar RSUExampleScenario.node[60].veinsmobility stopTime 315
scalar RSUExampleScenario.node[60].veinsmobility minSpeed 2.964949585638
scalar RSUExampleScenario.node[60].veinsmobility maxSpeed 10.993188462095
scalar RSUExampleScenario.node[60].veinsmobility totalDistance 243.99277688559
scalar RSUExampleScenario.node[60].veinsmobility totalCO2Emission 53.420561127845
scalar RSUExampleScenario.node[62].appl generatedWSMs 0
scalar RSUExampleScenario.node[62].appl receivedWSMs 0
scalar RSUExampleScenario.node[62].appl generatedBSMs 0
scalar RSUExampleScenario.node[62].appl receivedBSMs 0
scalar RSUExampleScenario.node[62].appl generatedWSAs 0
scalar RSUExampleScenario.node[62].appl receivedWSAs 0
scalar RSUExampleScenario.node[62].nic.phy80211p busyTime 0
scalar RSUExampleScenario.node[62].nic.mac1609_4 ReceivedUnicastPackets 0
scalar RSUExampleScenario.node[62].nic.mac1609_4 ReceivedBroadcasts 0
scalar RSUExampleScenario.node[62].nic.mac1609_4 SentPackets 0
scalar RSUExampleScenario.node[62].nic.mac1609_4 SentAcknowledgements 0
scalar RSUExampleScenario.node[62].nic.mac1609_4 SNIRLostPackets 0
scalar RSUExampleScenario.node[62].nic.mac1609_4 RXTXLostPackets 0
scalar RSUExampleScenario.node[62].nic.mac1609_4 TotalLostPackets 0
scalar RSUExampleScenario.node[62].nic.mac1609_4 DroppedPacketsInMac 0
scalar RSUExampleScenario.node[62].nic.mac1609_4 TooLittleTime 0
scalar RSUExampleScenario.node[62].nic.mac1609_4 TimesIntoBackoff 0
scalar RSUExampleScenario.node[62].nic.mac1609_4 SlotsBackoff 0
scalar RSUExampleScenario.node[62].nic.mac1609_4 NumInternalContention 0
scalar RSUExampleScenario.node[62].nic.mac1609_4 totalBusyTime 0
scalar RSUExampleScenario.node[62].veinsmobility startTime 297
scalar RSUExampleScenario.node[62].veinsmobility totalTime 20
scalar RSUExampleScenario.node[62].veinsmobility stopTime 318
scalar RSUExampleScenario.node[62].veinsmobility minSpeed 12.127036246746
scalar RSUExampleScenario.node[62].veinsmobility maxSpeed 13.174991033105
scalar RSUExampleScenario.node[62].veinsmobility totalDistance 253.4067273444
scalar RSUExampleScenario.node[62].veinsmobility totalCO2Emission 41.595397959167
scalar RSUExampleScenario.node[64].appl generatedWSMs 0
scalar RSUExampleScenario.node[64].appl receivedWSMs 0
scalar RSUExampleScenario.node[64].appl generatedBSMs 0
scalar RSUExampleScenario.node[64].appl receivedBSMs 0
scalar RSUExampleScenario.node[64].appl generatedWSAs 0
scalar RSUExampleScenario.node[64].appl receivedWSAs 0
scalar RSUExampleScenario.node[64].nic.phy80211p busyTime 0
scalar RSUExampleScenario.node[64].nic.mac1609_4 ReceivedUnicastPackets 0
scalar RSUExampleScenario.node[64].nic.mac1609_4 ReceivedBroadcasts 0
scalar RSUExampleScenario.node[64].nic.mac1609_4 SentPackets 0
scalar RSUExampleScenario.node[64].nic.mac1609_4 SentAcknowledgements 0
scalar RSUExampleScenario.node[64].nic.mac1609_4 SNIRLostPackets 0
scalar RSUExampleScenario.node[64].nic.mac1609_4 RXTXLostPackets 0
scalar RSUExampleScenario.node[64].nic.mac1609_4 TotalLostPackets 0
scalar RSUExampleScenario.node[64].nic.mac1609_4 DroppedPacketsInMac 0
scalar RSUExampleScenario.node[64].nic.mac1609_4 TooLittleTime 0
scalar RSUExampleScenario.node[64].nic.mac1609_4 TimesIntoBackoff 0
scalar RSUExampleScenario.node[64].nic.mac1609_4 SlotsBackoff 0
scalar RSUExampleScenario.node[64].nic.mac1609_4 NumInternalContention 0
scalar RSUExampleScenario.node[64].nic.mac1609_4 totalBusyTime 0
scalar RSUExampleScenario.node[64].veinsmobility startTime 304
scalar RSUExampleScenario.node[64].veinsmobility totalTime 16
scalar RSUExampleScenario.node[64].veinsmobility stopTime 321
scalar RSUExampleScenario.node[64].veinsmobility minSpeed 15.153033612674
scalar RSUExampleScenario.node[64].veinsmobility maxSpeed 16.331496923678
scalar RSUExampleScenario.node[64].veinsmobility totalDistance 250.12375249063
scalar RSUExampleScenario.node[64].veinsmobility totalCO2Emission 39.075609839091
scalar RSUExampleScenario.node[63].appl generatedWSMs 0
scalar RSUExampleScenario.node[63].appl receivedWSMs 0
scalar RSUExampleScenario.node[63].appl generatedBSMs 0
scalar RSUExampleScenario.node[63].appl receivedBSMs 0
scalar RSUExampleScenario.node[63].appl generatedWSAs 0
scalar RSUExampleScenario.node[63].appl receivedWSAs 0
scalar RSUExampleScenario.node[63].nic.phy80211p busyTime 0
scalar RSUExampleScenario.node[63].nic.mac1609_4 ReceivedUnicastPackets 0
scalar RSUExampleScenario.node[63].nic.mac1609_4 ReceivedBroadcasts 0
scalar RSUExampleScenario.node[63].nic.mac1609_4 SentPackets 0
scalar RSUExampleScenario.node[63].nic.mac1609_4 SentAcknowledgements 0
scalar RSUExampleScenario.node[63].nic.mac1609_4 SNIRLostPackets 0
scalar RSUExampleScenario.node[63].nic.mac1609_4 RXTXLostPackets 0
scalar RSUExampleScenario.node[63].nic.mac1609_4 TotalLostPackets 0
scalar RSUExampleScenario.node[63].nic.mac1609_4 DroppedPacketsInMac 0
scalar RSUExampleScenario.node[63].nic.mac1609_4 TooLittleTime 0
scalar RSUExampleScenario.node[63].nic.mac1609_4 TimesIntoBackoff 0
scalar RSUExampleScenario.node[63].nic.mac1609_4 SlotsBackoff 0
scalar RSUExampleScenario.node[63].nic.mac1609_4 NumInternalContention 0
scalar RSUExampleScenario.node[63].nic.mac1609_4 totalBusyTime 0
scalar RSUExampleScenario.node[63].veinsmobility startTime 304
scalar RSUExampleScenario.node[63].veinsmobility totalTime 20
scalar RSUExampleScenario.node[63].veinsmobility stopTime 325
scalar RSUExampleScenario.node[63].veinsmobility minSpeed 6.4936596247624
scalar RSUExampleScenario.node[63].veinsmobility maxSpeed 13.617666751636
scalar RSUExampleScenario.node[63].veinsmobility totalDistance 244.93965435391
scalar RSUExampleScenario.node[63].veinsmobility totalCO2Emission 55.800815073182
scalar RSUExampleScenario.node[65].appl generatedWSMs 0
scalar RSUExampleScenario.node[65].appl receivedWSMs 0
scalar RSUExampleScenario.node[65].appl generatedBSMs 0
scalar RSUExampleScenario.node[65].appl receivedBSMs 0
scalar RSUExampleScenario.node[65].appl generatedWSAs 0
scalar RSUExampleScenario.node[65].appl receivedWSAs 0
scalar RSUExampleScenario.node[65].nic.phy80211p busyTime 0
scalar RSUExampleScenario.node[65].nic.mac1609_4 ReceivedUnicastPackets 0
scalar RSUExampleScenario.node[65].nic.mac1609_4 ReceivedBroadcasts 0
scalar RSUExampleScenario.node[65].nic.mac1609_4 SentPackets 0
scalar RSUExampleScenario.node[65].nic.mac1609_4 SentAcknowledgements 0
scalar RSUExampleScenario.node[65].nic.mac1609_4 SNIRLostPackets 0
scalar RSUExampleScenario.node[65].nic.mac1609_4 RXTXLostPackets 0
scalar RSUExampleScenario.node[65].nic.mac1609_4 TotalLostPackets 0
scalar RSUExampleScenario.node[65].nic.mac1609_4 DroppedPacketsInMac 0
scalar RSUExampleScenario.node[65].nic.mac1609_4 TooLittleTime 0
scalar RSUExampleScenario.node[65].nic.mac1609_4 TimesIntoBackoff 0
scalar RSUExampleScenario.node[65].nic.mac1609_4 SlotsBackoff 0
scalar RSUExampleScenario.node[65].nic.mac1609_4 NumInternalContention 0
scalar RSUExampleScenario.node[65].nic.mac1609_4 totalBusyTime 0
scalar RSUExampleScenario.node[65].veinsmobility startTime 311
scalar RSUExampleScenario.node[65].veinsmobility totalTime 18
scalar RSUExampleScenario.node[65].veinsmobility stopTime 330
scalar RSUExampleScenario.node[65].veinsmobility minSpeed 12.909776996556
scalar RSUExampleScenario.node[65].veinsmobility maxSpeed 14.149210336259
scalar RSUExampleScenario.node[65].veinsmobility totalDistance 243.4052078675
scalar RSUExampleScenario.node[65].veinsmobility totalCO2Emission 40.011746845451

