version 2
run Default-0-20201028-21:38:24-4164
attr configname Default
attr datetime 20201028-21:38:24
attr experiment Default
attr inifile omnetpp.ini
attr iterationvars ""
attr iterationvarsf ""
attr measurement ""
attr network RSUExampleScenario
attr processid 4164
attr repetition 0
attr replication #0
attr resultdir results
attr runnumber 0
attr seedset 0
param *.playgroundSizeX 2500m
param *.playgroundSizeY 2500m
param *.playgroundSizeZ 50m
param *.annotations.draw true
param *.manager.updateInterval 1s
param *.manager.host "\"localhost\""
param *.manager.port 9999
param *.manager.autoShutdown true
param *.manager.launchConfig "xmldoc(\"erlangen.launchd.xml\")"
param *.rsu[0].mobility.x 2000
param *.rsu[0].mobility.y 2000
param *.rsu[0].mobility.z 3
param *.rsu[*].applType "\"TraCIDemoRSU11p\""
param *.rsu[*].appl.headerLength "80 bit"
param *.rsu[*].appl.sendBeacons false
param *.rsu[*].appl.dataOnSch false
param *.rsu[*].appl.beaconInterval 1s
param *.rsu[*].appl.beaconUserPriority 7
param *.rsu[*].appl.dataUserPriority 5
param *.rsu[*].nic.phy80211p.antennaOffsetZ "0 m"
param *.connectionManager.sendDirect true
param *.connectionManager.maxInterfDist 2600m
param *.connectionManager.drawMaxIntfDist false
param *.**.nic.mac1609_4.useServiceChannel false
param *.**.nic.mac1609_4.txPower 20mW
param *.**.nic.mac1609_4.bitrate 6Mbps
param *.**.nic.phy80211p.minPowerLevel -110dBm
param *.**.nic.phy80211p.useNoiseFloor true
param *.**.nic.phy80211p.noiseFloor -98dBm
param *.**.nic.phy80211p.decider "xmldoc(\"config.xml\")"
param *.**.nic.phy80211p.analogueModels "xmldoc(\"config.xml\")"
param *.**.nic.phy80211p.usePropagationDelay true
param *.**.nic.phy80211p.antenna "xmldoc(\"antenna.xml\", \"/root/Antenna[@id='monopole']\")"
param *.node[*].nic.phy80211p.antennaOffsetY "0 m"
param *.node[*].nic.phy80211p.antennaOffsetZ "1.895 m"
param *.node[*].applType "\"TraCIDemo11p\""
param *.node[*].appl.headerLength "80 bit"
param *.node[*].appl.sendBeacons false
param *.node[*].appl.dataOnSch false
param *.node[*].appl.beaconInterval 1s
param *.node[*].veinsmobility.x 0
param *.node[*].veinsmobility.y 0
param *.node[*].veinsmobility.z 0
param *.node[*].veinsmobility.setHostSpeed false
param *.node[*0].veinsmobility.accidentCount 0
param *.node[*0].veinsmobility.accidentStart 73s
param *.node[*0].veinsmobility.accidentDuration 50s

vector 0 RSUExampleScenario.node[0].veinsmobility posx ETV
vector 1 RSUExampleScenario.node[0].veinsmobility posy ETV
vector 2 RSUExampleScenario.node[1].veinsmobility posx ETV
vector 3 RSUExampleScenario.node[1].veinsmobility posy ETV
vector 4 RSUExampleScenario.node[0].veinsmobility speed ETV
vector 5 RSUExampleScenario.node[1].veinsmobility speed ETV
vector 6 RSUExampleScenario.node[0].veinsmobility acceleration ETV
vector 7 RSUExampleScenario.node[0].veinsmobility co2emission ETV
vector 8 RSUExampleScenario.node[1].veinsmobility acceleration ETV
vector 9 RSUExampleScenario.node[1].veinsmobility co2emission ETV
vector 10 RSUExampleScenario.node[2].veinsmobility posx ETV
vector 11 RSUExampleScenario.node[2].veinsmobility posy ETV
vector 12 RSUExampleScenario.node[2].veinsmobility speed ETV
vector 13 RSUExampleScenario.node[2].veinsmobility acceleration ETV
vector 14 RSUExampleScenario.node[2].veinsmobility co2emission ETV
vector 15 RSUExampleScenario.node[3].veinsmobility posx ETV
vector 16 RSUExampleScenario.node[3].veinsmobility posy ETV
vector 17 RSUExampleScenario.node[4].veinsmobility posx ETV
vector 18 RSUExampleScenario.node[4].veinsmobility posy ETV
vector 19 RSUExampleScenario.node[3].veinsmobility speed ETV
vector 20 RSUExampleScenario.node[4].veinsmobility speed ETV
vector 21 RSUExampleScenario.node[3].veinsmobility acceleration ETV
vector 22 RSUExampleScenario.node[3].veinsmobility co2emission ETV
vector 23 RSUExampleScenario.node[4].veinsmobility acceleration ETV
vector 24 RSUExampleScenario.node[4].veinsmobility co2emission ETV
9	4	3	3.1980329120646
9	5	4	2.8185583610952
9	6	5	0.973
9	7	6	3.6800343480601
9	8	7	0.973
9	9	8	4.2853427635155
9	10	9	1.530993973745
9	11	10	0.973
9	12	11	2.2564405918424
9	13	12	3.5571068655941
9	14	13	3.7563038476037
9	15	14	0.973
9	16	15	2.4768495078236
9	17	16	3.0793132157169
9	18	17	2.0665725851896
9	19	18	4.1327240604936
9	20	19	2.7134929056258
8	4	3	0.32618666749913
8	5	4	0.20690260962583
8	6	5	-1.1772990263766
8	7	6	0.49644190394319
8	8	7	-0.5174885753775
8	9	8	0.66613068294246
8	10	9	-0.1475384418387
8	11	10	-0.54368123686872
8	12	11	0.086330898758025
8	13	12	0.45940596188884
8	14	13	0.48689800673164
8	15	14	-1.0399857374839
8	16	15	0.15218243163545
8	17	16	0.32056095078588
8	18	17	0.014923210139386
8	19	18	0.59291964268778
8	20	19	0.17580409063958
5	3	2	13.99521132697
5	4	3	14.321397994469
5	5	4	14.528300604095
5	6	5	13.351001577719
5	7	6	13.847443481662
5	8	7	13.329954906284
5	9	8	13.996085589227
5	10	9	13.848547147388
5	11	10	13.304865910519
5	12	11	13.391196809277
5	13	12	13.850602771166
5	14	13	14.337500777898
5	15	14	13.297515040414
5	16	15	13.449697472049
5	17	16	13.770258422835
5	18	17	13.785181632975
5	19	18	14.378101275663
5	20	19	14.553905366302
3	2	1	68.133230370666
3	3	2	68.133230370666
3	4	3	68.087211839997
3	5	4	68.040120754523
3	6	5	67.992349339623
3	7	6	67.948449075368
3	8	7	67.902916429404
3	9	8	67.859085370027
3	10	9	67.959544728437
3	11	10	69.377862715352
3	12	11	69.361594283426
3	13	12	69.345220290995
3	14	13	69.328284563132
3	15	14	69.310753484129
3	16	15	69.294494040427
3	17	16	69.27804851672
3	18	17	69.261211029347
3	19	18	69.244355294724
3	20	19	69.226774571746
2	2	1	30.099491829414
2	3	2	30.099491829414
2	4	3	44.093308655455
2	5	4	58.413279647334
2	6	5	72.940132632796
2	7	6	86.289803899477
2	8	7	100.13586760399
2	9	8	113.46449429635
2	10	9	127.45479965392
2	11	10	141.20794262782
2	12	11	154.51280853833
2	13	12	167.90400534761
2	14	13	181.75460811878
2	15	14	196.09210889668
2	16	15	209.38962393709
2	17	16	222.83932140914
2	18	17	236.60957983198
2	19	18	250.39476146495
2	20	19	264.77286274061
vector 25 RSUExampleScenario.node[5].veinsmobility posx ETV
vector 26 RSUExampleScenario.node[5].veinsmobility posy ETV
vector 27 RSUExampleScenario.node[5].veinsmobility speed ETV
7	4	3	4.5101431359823
7	5	4	0.973
7	6	5	1.4867496026317
7	7	6	0.973
7	8	7	0.973
7	9	8	0.973
7	10	9	0.973
7	11	10	0.973
7	12	11	2.2305025056122
7	13	12	3.3691572681012
7	14	13	3.0975799532323
7	15	14	4.3351881435373
7	16	15	5.1300824342963
7	17	16	5.9930333255393
7	18	17	9.068202801645
7	19	18	6.5800705126888
7	20	19	3.7807481373932
7	21	20	3.3727805542996
7	22	21	0.973
7	23	22	4.9521044066858
7	24	23	0.973
7	25	24	1.5256414262843
6	4	3	0.62409493126906
6	5	4	-0.82864982441533
6	6	5	-0.17134158615954
6	7	6	-1.5626100045206
6	8	7	-4.0904629030265
6	9	8	-4.5
6	10	9	-4.0348503606057
6	11	10	-0.17595406448967
6	12	11	2.0318194778869
6	13	12	2.0578714020317
6	14	13	1.3036597494269
6	15	14	1.6635781639256
6	16	15	1.6707392071607
6	17	16	1.6929525283631
6	18	17	2.319083649246
6	19	18	1.3308432088466
6	20	19	0.47731738955602
6	21	20	0.34271732277703
6	22	21	-0.44796881531365
6	23	22	0.75620721047744
6	24	23	-0.86490061255172
6	25	24	-0.15652966958005
4	3	2	14.789478198948
4	4	3	15.413573130217
4	5	4	14.584923305801
4	6	5	14.413581719642
4	7	6	12.850971715121
4	8	7	8.7605088120948
4	9	8	4.2605088120948
4	10	9	0.22565845148913
4	11	10	0.04970438699946
4	12	11	2.0815238648864
4	13	12	4.1393952669181
4	14	13	5.443055016345
4	15	14	7.1066331802705
4	16	15	8.7773723874312
4	17	16	10.470324915794
4	18	17	12.78940856504
4	19	18	14.120251773887
4	20	19	14.597569163443
4	21	20	14.94028648622
4	22	21	14.492317670906
4	23	22	15.248524881384
4	24	23	14.383624268832
4	25	24	14.227094599252
1	2	1	28.571856717077
1	3	2	28.571856717077
1	4	3	34.725024101097
1	5	4	41.137846391392
1	6	5	47.205908643248
1	7	6	53.202684170495
1	8	7	58.549335279259
1	9	8	62.194147920035
1	10	9	63.966734045742
1	11	10	64.06061932046
1	12	11	64.081298847405
1	13	12	65.024432678635
1	14	13	66.950571914739
1	15	14	68.949291117135
1	16	15	69.374877298723
1	17	16	69.364144827901
1	18	17	69.351342311191
1	19	18	69.335704151136
1	20	19	69.318438711837
1	21	20	69.30058963603
1	22	21	69.28232150501
1	23	22	69.264601124732
1	24	23	69.245956097365
1	25	24	69.228368621186
0	2	1	48.407796666299
0	3	2	48.407796666299
0	4	3	61.856932487353
0	5	4	75.873602698936
0	6	5	89.136722049106
0	7	6	102.24402817632
0	8	7	113.93034068202
0	9	8	121.89690118473
0	10	9	125.77128815835
0	11	10	125.97649561208
0	12	11	126.0216953847
0	13	12	127.8769987216
0	14	13	131.54042363042
0	15	14	136.57506314307
0	16	15	143.64951586083
0	17	16	152.42688824826
0	18	17	162.89721316405
0	19	18	175.68662172909
0	20	19	189.80687350298
0	21	20	204.40444266642
0	22	21	219.34472915264
0	23	22	233.83704682355
0	24	23	249.08557170493
0	25	24	263.46919597377
vector 28 RSUExampleScenario.node[5].veinsmobility acceleration ETV
vector 29 RSUExampleScenario.node[5].veinsmobility co2emission ETV
14	12	11	2.291957551449
14	13	12	2.4619725753026
14	14	13	1.9836577059553
14	15	14	2.8270680029254
14	16	15	1.8220476663168
14	17	16	0.973
14	18	17	2.4416110652252
14	19	18	3.6575584650269
14	20	19	1.9118129561053
14	21	20	0.973
14	22	21	4.8824630099817
14	23	22	0.973
14	24	23	2.9361973452551
14	25	24	0.973
14	26	25	2.9361256072792
14	27	26	1.1200860805273
14	28	27	0.973
13	12	11	0.083695683046244
13	13	12	0.12978077486623
13	14	13	-0.01273789925035
13	15	14	0.22868058823515
13	16	15	-0.065288548683746
13	17	16	-0.64247826924548
13	18	17	0.13782349480316
13	19	18	0.4788402965758
13	20	19	-0.037019364582374
13	21	20	-0.49397496005986
13	22	21	0.81614513453096
13	23	22	-0.73735654451884
13	24	23	0.27411819552071
13	25	24	-0.3154262742959
13	26	25	0.27607546409126
13	27	26	-0.26723807156086
13	28	27	-0.27899794960395
12	11	10	13.675919891494
12	12	11	13.75961557454
12	13	12	13.889396349407
12	14	13	13.876658450156
12	15	14	14.105339038392
12	16	15	14.040050489708
12	17	16	13.397572220462
12	18	17	13.535395715265
12	19	18	14.014236011841
12	20	19	13.977216647259
12	21	20	13.483241687199
12	22	21	14.29938682173
12	23	22	13.562030277211
12	24	23	13.836148472732
12	25	24	13.520722198436
12	26	25	13.796797662527
12	27	26	13.529559590966
12	28	27	13.250561641362
11	10	9	68.133230370666
11	11	10	68.133230370666
11	12	11	68.088261722158
11	13	12	68.043017868635
11	14	13	67.99734727482
11	15	14	67.951718565288
11	16	15	67.905337916796
11	17	16	67.859171947669
11	18	17	67.918208898989
11	19	18	69.379009642067
11	20	19	69.361873832801
11	21	20	69.344783288704
11	22	21	69.328296749041
11	23	22	69.310812273612
11	24	23	69.294229395751
11	25	24	69.27731134178
11	26	25	69.260778973084
11	27	26	69.243909035042
11	28	27	69.227365860486
10	10	9	30.099491829414
10	11	10	30.099491829414
10	12	11	43.77404903459
10	13	12	57.532293583266
10	14	13	71.420305975284
10	15	14	85.295581737273
10	16	15	99.399515301468
10	17	16	113.43816682241
10	18	17	126.83131755976
10	19	18	140.26994772942
10	20	19	154.28418374127
10	21	20	168.26140038853
10	22	21	181.74464207572
10	23	22	196.04402889745
10	24	23	209.60605917467
10	25	24	223.4422076474
10	26	25	236.96292984583
10	27	26	250.75972750836
10	28	27	264.28928709933
vector 30 RSUExampleScenario.node[6].veinsmobility posx ETV
vector 31 RSUExampleScenario.node[6].veinsmobility posy ETV
vector 32 RSUExampleScenario.node[7].veinsmobility posx ETV
vector 33 RSUExampleScenario.node[7].veinsmobility posy ETV
vector 34 RSUExampleScenario.node[6].veinsmobility speed ETV
vector 35 RSUExampleScenario.node[7].veinsmobility speed ETV
vector 36 RSUExampleScenario.node[6].veinsmobility acceleration ETV
vector 37 RSUExampleScenario.node[6].veinsmobility co2emission ETV
vector 38 RSUExampleScenario.node[7].veinsmobility acceleration ETV
vector 39 RSUExampleScenario.node[7].veinsmobility co2emission ETV
vector 40 RSUExampleScenario.node[8].veinsmobility posx ETV
vector 41 RSUExampleScenario.node[8].veinsmobility posy ETV
vector 42 RSUExampleScenario.node[8].veinsmobility speed ETV
24	19	18	3.7528428505515
24	20	19	1.1690269971556
24	21	20	0.973
24	22	21	2.656854909012
24	23	22	0.973
24	24	23	1.8434444603091
24	25	24	0.973
24	26	25	2.2769746417731
24	27	26	1.6772462477536
24	28	27	4.5826160079298
24	29	28	0.973
24	30	29	2.290001107627
24	31	30	2.7174646122143
24	32	31	0.973
24	33	32	0.973
24	34	33	3.7302180993179
24	35	34	0.973
24	36	35	2.3568242228281
24	37	36	3.0658657235031
24	38	37	3.2795027025649
24	39	38	1.4712666483093
23	19	18	0.6491165544372
23	20	19	-0.23361537344754
23	21	20	-0.24117760881782
23	22	21	0.28385322990361
23	23	22	-0.4756835904438
23	24	23	0.015085066668689
23	25	24	-0.25622075553983
23	26	25	0.17576094514225
23	27	26	-0.041812380915507
23	28	27	0.91806425161194
23	29	28	-0.49086074382067
23	30	29	0.15612674853764
23	31	30	0.28900784845464
23	32	31	-0.77968047251925
23	33	32	-0.40656031433027
23	34	33	0.67665821334813
23	35	34	-0.66667985585518
23	36	35	0.21147271951195
23	37	36	0.44194381879643
23	38	37	0.48282079794444
23	39	38	-0.13118644272909
20	18	17	11.461463838746
20	19	18	12.110580393183
20	20	19	11.876965019736
20	21	20	11.635787410918
20	22	21	11.919640640822
20	23	22	11.443957050378
20	24	23	11.459042117047
20	25	24	11.202821361507
20	26	25	11.378582306649
20	27	26	11.336769925733
20	28	27	12.254834177345
20	29	28	11.763973433525
20	30	29	11.920100182062
20	31	30	12.209108030517
20	32	31	11.429427557998
20	33	32	11.022867243667
20	34	33	11.699525457016
20	35	34	11.03284560116
20	36	35	11.244318320672
20	37	36	11.686262139469
20	38	37	12.169082937413
20	39	38	12.037896494684
18	17	16	68.133230370666
18	18	17	68.133230370666
18	19	18	68.095543213763
18	20	19	68.055721656073
18	21	20	68.01666826372
18	22	21	67.978407902564
18	23	22	67.93921418583
18	24	23	67.901584594094
18	25	24	67.863905400206
18	26	25	67.827068701827
18	27	26	68.928590410053
18	28	27	69.372228722154
18	29	28	69.357244209201
18	30	29	69.342859892795
18	31	30	69.328284673498
18	32	31	69.313356071871
18	33	32	69.2993808191
18	34	33	69.285902685115
18	35	34	69.271597172023
18	36	35	69.258106837072
18	37	36	69.244357925329
18	38	37	69.230068629866
18	39	38	69.215188968642
17	17	16	30.099491829414
17	18	17	30.099491829414
17	19	18	41.559813633103
17	20	19	53.669187312417
17	21	20	65.544968896021
17	22	21	77.179596902055
17	23	22	89.098049854491
17	24	23	100.54086661421
17	25	24	111.9987669375
17	26	25	123.20047203542
17	27	26	134.50324261219
17	28	27	145.81561006472
17	29	28	158.07044424206
17	30	29	169.83441767559
17	31	30	181.75451785765
17	32	31	193.96362588817
17	33	32	205.39305344617
17	34	33	216.41592068983
17	35	34	228.11544614685
17	36	35	239.14829174801
17	37	36	250.39261006868
17	38	37	262.07887220815
17	39	38	274.24795514556
vector 43 RSUExampleScenario.node[8].veinsmobility acceleration ETV
vector 44 RSUExampleScenario.node[8].veinsmobility co2emission ETV
29	26	25	4.2088205476419
29	27	26	0.973
29	28	27	2.1163607192648
29	29	28	1.8271781981086
29	30	29	4.2317915086943
29	31	30	0.973
29	32	31	1.5571389197059
29	33	32	2.3013925887275
29	34	33	6.2413626467008
29	35	34	2.1564557832687
29	36	35	0.973
29	37	36	5.6501172850259
29	38	37	0.973
29	39	38	0.973
29	40	39	0.973
28	26	25	0.51293079243042
28	27	26	-0.47317559288349
28	28	27	-0.019522035261616
28	29	28	-0.095184519467875
28	30	29	0.52306425094139
28	31	30	-0.6959086785093
28	32	31	-0.1618649671087
28	33	32	0.04316473142244
28	34	33	1.029648572416
28	35	34	-0.026982307177967
28	36	35	-1.1767905275803
28	37	36	0.90275569729552
28	38	37	-0.64987273529243
28	39	38	-0.61889494725789
28	40	39	-1.5492527182911
27	25	24	15.366275886961
27	26	25	15.879206679392
27	27	26	15.406031086508
27	28	27	15.386509051246
27	29	28	15.291324531779
27	30	29	15.81438878272
27	31	30	15.118480104211
27	32	31	14.956615137102
27	33	32	14.999779868524
27	34	33	16.02942844094
27	35	34	16.002446133763
27	36	35	14.825655606182
27	37	36	15.728411303478
27	38	37	15.078538568185
27	39	38	14.459643620927
27	40	39	12.910390902636
26	24	23	68.133230370666
26	25	24	68.133230370666
26	26	25	68.082703556769
26	27	26	68.030490143016
26	28	27	67.979832607558
26	29	28	67.929239263727
26	30	29	67.878958902074
26	31	30	67.826958620106
26	32	31	69.299880035496
26	33	32	69.363188712541
26	34	33	69.344847836403
26	35	34	69.325247964659
26	36	35	69.305681085344
26	37	36	69.287553118432
26	38	37	69.268321313292
26	39	38	69.249884135503
26	40	39	69.232203707191
25	24	23	30.099491829414
25	25	24	30.099491829414
25	26	25	45.464236600803
25	27	26	61.341861055535
25	28	27	76.746357065211
25	29	28	92.131332984826
25	30	29	107.42113386928
25	31	30	123.23394688588
25	32	31	138.25486220059
25	33	32	153.20883125992
25	34	33	168.20861112844
25	35	34	184.23803956938
25	36	35	200.24048570315
25	37	36	215.06614130933
25	38	37	230.79455261281
25	39	38	245.87309118099
25	40	39	260.33273480192
vector 45 RSUExampleScenario.node[9].veinsmobility posx ETV
vector 46 RSUExampleScenario.node[9].veinsmobility posy ETV
vector 47 RSUExampleScenario.node[10].veinsmobility posx ETV
vector 48 RSUExampleScenario.node[10].veinsmobility posy ETV
22	19	18	5.9174720367297
22	20	19	1.566057978143
22	21	20	2.4179091993412
22	22	21	1.2997579635822
22	23	22	0.973
22	24	23	0.973
22	25	24	0.973
22	26	25	0.973
22	27	26	1.110329358226
22	28	27	1.1102077022066
22	29	28	0.973
22	30	29	0.973
22	31	30	0.973
22	32	31	1.9384427728132
22	33	32	2.3159030553995
22	34	33	5.0033357069442
22	35	34	6.3504886468137
22	36	35	5.0865162183254
22	37	36	7.5226450640181
22	38	37	7.2505001021448
22	39	38	0.973
22	40	39	3.9406323542594
22	41	40	1.4781355523938
22	42	41	0.973
22	43	42	1.6575551677073
22	44	43	2.3589211227107
22	45	44	4.49112430226
22	46	45	3.0363991841856
21	19	18	1.1408086051
21	20	19	-0.13888849741779
21	21	20	0.1104409519583
21	22	21	-0.21659578338731
21	23	22	-4.1382950749505
21	24	23	-4.0835251819692
21	25	24	-4.4244271932246
21	26	25	-1.1414839472651
21	27	26	-0.037027975633084
21	28	27	-0.0039841092085341
21	29	28	-0.0043930403348384
21	30	29	0
21	31	30	0
21	32	31	1.7561127329245
21	33	32	1.3876754304394
21	34	33	2.5998513045954
21	35	34	2.433438217896
21	36	35	1.4738239137456
21	37	36	2.0262469066074
21	38	37	1.6444382134148
21	39	38	-0.34468203636352
21	40	39	0.59467056775466
21	41	40	-0.15530445761979
21	42	41	-0.44511694652028
21	43	42	-0.087444642512128
21	44	43	0.13300934082363
21	45	44	0.74657001704909
21	46	45	0.29277805786114
19	18	17	12.937371246333
19	19	18	14.078179851433
19	20	19	13.939291354015
19	21	20	14.049732305973
19	22	21	13.833136522586
19	23	22	9.6948414476354
19	24	23	5.6113162656662
19	25	24	1.1868890724416
19	26	25	0.045405125176456
19	27	26	0.0083771495433725
19	28	27	0.0043930403348384
19	29	28	0
19	30	29	0
19	31	30	0
19	32	31	1.7561127329245
19	33	32	3.1437881633639
19	34	33	5.7436394679593
19	35	34	8.1770776858553
19	36	35	9.6509015996009
19	37	36	11.677148506208
19	38	37	13.321586719623
19	39	38	12.97690468326
19	40	39	13.571575251014
19	41	40	13.416270793394
19	42	41	12.971153846874
19	43	42	12.883709204362
19	44	43	13.016718545186
19	45	44	13.763288562235
19	46	45	14.056066620096
16	17	16	28.571856717077
16	18	17	28.571856717077
16	19	18	33.95445437989
16	20	19	39.811685846945
16	21	20	45.611132707888
16	22	21	51.456528564077
16	23	22	57.211809671663
16	24	23	61.245351720028
16	25	24	63.579941741586
16	26	25	64.07374733978
16	27	26	64.092638157396
16	28	27	64.096123473284
16	29	28	64.097951199195
16	30	29	64.097951199195
16	31	30	64.097951199195
16	32	31	64.097951199195
16	33	32	64.894356023928
16	34	33	66.345407553874
16	35	34	68.735496086887
16	36	35	69.374767208358
16	37	36	69.362966635789
16	38	37	69.348688483957
16	39	38	69.332399606778
16	40	39	69.316532187153
16	41	40	69.299937638242
16	42	41	69.283532986773
16	43	42	69.267672598943
16	44	43	69.251919133439
16	45	44	69.236003031693
16	46	45	69.219174066668
15	17	16	48.407796666299
15	18	17	48.407796666299
15	19	18	60.172678477458
15	20	19	72.974979572071
15	21	20	85.650979370545
15	22	21	98.427411066825
15	23	22	111.00687664504
15	24	23	119.82309298742
15	25	24	124.92586629535
15	26	25	126.00518986073
15	27	26	126.04648000547
15	28	27	126.05409794983
15	29	28	126.05809285725
15	30	29	126.05809285725
15	31	30	126.05809285725
15	32	31	126.05809285725
15	33	32	127.62300288696
15	34	33	130.41149128471
15	35	34	135.62417725505
15	36	35	143.73955143124
15	37	36	153.39045303084
15	38	37	165.06760153705
15	39	38	178.38918825667
15	40	39	191.36609293993
15	41	40	204.93766819095
15	42	41	218.35393898434
15	43	42	231.32509283121
15	44	43	244.20880203558
15	45	44	257.22552058076
15	46	45	270.988809143
vector 49 RSUExampleScenario.node[9].veinsmobility speed ETV
vector 50 RSUExampleScenario.node[10].veinsmobility speed ETV
vector 51 RSUExampleScenario.node[9].veinsmobility acceleration ETV
vector 52 RSUExampleScenario.node[9].veinsmobility co2emission ETV
vector 53 RSUExampleScenario.node[10].veinsmobility acceleration ETV
vector 54 RSUExampleScenario.node[10].veinsmobility co2emission ETV
vector 55 RSUExampleScenario.node[11].veinsmobility posx ETV
vector 56 RSUExampleScenario.node[11].veinsmobility posy ETV
vector 57 RSUExampleScenario.node[11].veinsmobility speed ETV
vector 58 RSUExampleScenario.node[11].veinsmobility acceleration ETV
vector 59 RSUExampleScenario.node[11].veinsmobility co2emission ETV
39	33	32	3.4035429844596
39	34	33	0.973
39	35	34	2.6331738606726
39	36	35	1.8453463192016
39	37	36	1.9662845321287
39	38	37	0.973
39	39	38	3.8938355366787
39	40	39	0.973
39	41	40	3.8587126526714
39	42	41	0.973
39	43	42	0.973
39	44	43	2.7273488484465
39	45	44	3.0790278701356
39	46	45	1.5533680375965
39	47	46	0.973
39	48	47	1.7446990954021
39	49	48	1.3216892845652
39	50	49	2.4389582843785
39	51	50	0.973
39	52	51	2.4929981626738
39	53	52	2.2725985949968
39	54	53	1.8578205812618
39	55	54	0.973
39	56	55	1.6738018183541
38	33	32	0.68488818586338
38	34	33	-0.7741203722544
38	35	34	0.40009836677928
38	36	35	0.06756161886733
38	37	36	0.11300771026872
38	38	37	-0.57102975638118
38	39	38	0.87044992772862
38	40	39	-1.0304421190405
38	41	40	0.87439826210029
38	42	41	-0.39746851364616
38	43	42	-0.33173692431301
38	44	43	0.43712434400804
38	45	44	0.53755355924368
38	46	45	-0.065039027296008
38	47	46	-0.50307302016299
38	48	47	0.027038140711374
38	49	48	-0.14716801408213
38	50	49	0.30694924814161
38	51	50	-0.32280257192906
38	52	51	0.32877664256375
38	53	52	0.22602772780228
38	54	53	0.057276196312159
38	55	54	-0.22450974453241
38	56	55	-0.009220460196957
35	32	31	9.5970945450859
35	33	32	10.281982730949
35	34	33	9.5078623586949
35	35	34	9.9079607254742
35	36	35	9.9755223443415
35	37	36	10.08853005461
35	38	37	9.5175002982291
35	39	38	10.387950225958
35	40	39	9.3575081069171
35	41	40	10.231906369017
35	42	41	9.8344378553713
35	43	42	9.5027009310583
35	44	43	9.9398252750663
35	45	44	10.47737883431
35	46	45	10.412339807014
35	47	46	9.909266786851
35	48	47	9.9363049275624
35	49	48	9.7891369134802
35	50	49	10.096086161622
35	51	50	9.7732835896928
35	52	51	10.102060232257
35	53	52	10.328087960059
35	54	53	10.385364156371
35	55	54	10.160854411839
35	56	55	10.151633951642
33	31	30	68.133230370666
33	32	31	68.133230370666
33	33	32	68.101673563174
33	34	33	68.067864731954
33	35	34	68.036601334402
33	36	35	68.004022348357
33	37	36	67.971221208724
33	38	37	67.938048481362
33	39	38	67.906753392697
33	40	39	67.872596123122
33	41	40	67.841827114799
33	42	41	68.05774504493
33	43	42	69.32814193699
33	44	43	69.369336511254
33	45	44	69.357182659278
33	46	45	69.344371517438
33	47	46	69.331639901616
33	48	47	69.319523414817
33	49	48	69.30737386732
33	50	49	69.295404268486
33	51	50	69.283059349601
33	52	51	69.271109135307
33	53	52	69.258756911669
33	54	53	69.246128314204
33	55	54	69.23342968267
33	56	55	69.221005568859
32	31	30	30.099491829414
32	32	31	30.099491829414
32	33	32	39.695630107606
32	34	33	49.976588328519
32	35	34	59.48350331153
32	36	35	69.390476795003
32	37	36	79.365005165416
32	38	37	89.452529985864
32	39	38	98.969081948073
32	40	39	109.35599710526
32	41	40	118.71257281798
32	42	41	128.93598776103
32	43	42	138.67996830223
32	44	43	148.18095654571
32	45	44	158.12078182077
32	46	45	168.59816065508
32	47	46	179.0105004621
32	48	47	188.91976724895
32	49	48	198.85607217651
32	50	49	208.64520908999
32	51	50	218.74129525161
32	52	51	228.51457884131
32	53	52	238.61663907356
32	54	53	248.94472703362
32	55	54	259.33009118999
32	56	55	269.49094560183
44	40	39	0.973
44	41	40	4.1037658557679
44	42	41	1.0716284002751
44	43	42	1.4287079842305
44	44	43	3.5063193292219
44	45	44	2.1822999458406
44	46	45	0.973
44	47	46	3.5791802003012
44	48	47	0.973
44	49	48	0.973
44	50	49	0.973
44	51	50	0.973
44	52	51	0.973
44	53	52	1.7862322903478
44	54	53	2.8935041285001
44	55	54	1.8874379987738
44	56	55	1.7450314433957
44	57	56	0.973
44	58	57	8.088370047233
43	40	39	-0.55328080325853
43	41	40	0.57194746076129
43	42	41	-0.2893570111366
43	43	42	-0.18232956463471
43	44	43	0.40550771099515
43	45	44	0.025561121525243
43	46	45	-0.58285793261602
43	47	46	0.43381340827327
43	48	47	-0.60141219747592
43	49	48	-1.267574984909
43	50	49	-0.90364498641603
43	51	50	-0.46959840864116
43	52	51	-1.0003564403575
43	53	52	0.036394985202033
43	54	53	0.45380030766147
43	55	54	0.058397264285128
43	56	55	0.0029439849438297
43	57	56	-0.66372062747775
43	58	57	2.1282903349027
42	39	38	14.538521330921
42	40	39	13.985240527662
42	41	40	14.557187988424
42	42	41	14.267830977287
42	43	42	14.085501412652
42	44	43	14.491009123648
42	45	44	14.516570245173
42	46	45	13.933712312557
42	47	46	14.36752572083
42	48	47	13.766113523354
42	49	48	12.498538538445
42	50	49	11.594893552029
42	51	50	11.125295143388
42	52	51	10.12493870303
42	53	52	10.161333688233
42	54	53	10.615133995894
42	55	54	10.673531260179
42	56	55	10.676475245123
42	57	56	10.012754617645
42	58	57	12.141044952548
41	38	37	68.133230370666
41	39	38	68.133230370666
41	40	39	68.085425348354
41	41	40	68.039439603295
41	42	41	67.991573201978
41	43	42	67.944658253567
41	44	43	67.898342834414
41	45	44	67.850694039966
41	46	45	68.300986948408
41	47	46	69.374001743731
41	48	47	69.356433951939
41	49	48	69.339601532713
41	50	49	69.324319031953
41	51	50	69.310141456793
41	52	51	69.296538079809
41	53	52	69.28415788168
41	54	53	69.271733181837
41	55	54	69.258753600835
41	56	55	69.245702614986
41	57	56	69.2326480294
41	58	57	69.220405003579
40	38	37	30.099491829414
40	39	38	30.099491829414
40	40	39	44.636564523295
40	41	40	58.620411543532
40	42	41	73.176149034946
40	43	42	87.44255834713
40	44	43	101.52665626223
40	45	44	116.01622148302
40	46	45	130.50517611579
40	47	46	144.36557391832
40	48	47	158.73309963915
40	49	48	172.49921316251
40	50	49	184.99775170095
40	51	50	196.59264525298
40	52	51	207.71794039637
40	53	52	217.8428790994
40	54	53	228.00421278763
40	55	54	238.61934678353
40	56	55	249.29287804371
40	57	56	259.96935328883
40	58	57	269.98210790648
vector 60 RSUExampleScenario.node[12].veinsmobility posx ETV
vector 61 RSUExampleScenario.node[12].veinsmobility posy ETV
vector 62 RSUExampleScenario.node[13].veinsmobility posx ETV
vector 63 RSUExampleScenario.node[13].veinsmobility posy ETV
vector 64 RSUExampleScenario.node[12].veinsmobility speed ETV
vector 65 RSUExampleScenario.node[13].veinsmobility speed ETV
vector 66 RSUExampleScenario.node[12].veinsmobility acceleration ETV
vector 67 RSUExampleScenario.node[12].veinsmobility co2emission ETV
vector 68 RSUExampleScenario.node[13].veinsmobility acceleration ETV
vector 69 RSUExampleScenario.node[13].veinsmobility co2emission ETV
37	33	32	1.6666785408358
37	34	33	1.6098295908172
37	35	34	0.973
37	36	35	2.6112221999565
37	37	36	0.973
37	38	37	0.973
37	39	38	0.973
37	40	39	0.973
37	41	40	1.1103929152296
37	42	41	1.1100797362702
37	43	42	1.1100680820564
37	44	43	1.1100080613197
37	45	44	0.973
37	46	45	0.973
37	47	46	0.973
37	48	47	1.8880148344357
37	49	48	3.3813855411707
37	50	49	3.0071958949708
37	51	50	5.9404447169418
37	52	51	5.6954303789734
37	53	52	8.7286128519851
37	54	53	4.4008040870615
37	55	54	1.5339300729801
37	56	55	3.5115188458178
37	57	56	2.0932012884822
37	58	57	1.1651832583495
37	59	58	2.3837443030576
37	60	59	1.7027892851431
37	61	60	0.973
37	62	61	2.2945068670398
36	33	32	-0.081783353048376
36	34	33	-0.09804312561173
36	35	34	-0.41905477968976
36	36	35	0.23870467701927
36	37	36	-1.3085439398648
36	38	37	-4.5
36	39	38	-2.2268114849459
36	40	39	-4.4366624528104
36	41	40	-0.010636466474981
36	42	41	-0.0068902746715413
36	43	42	-0.00029840716761475
36	44	43	-0.0012452719653444
36	45	44	-0.00016815474048389
36	46	45	0
36	47	46	0
36	48	47	1.6989207046106
36	49	48	2.2069676619256
36	50	49	1.3012473299867
36	51	50	2.4092173396843
36	52	51	1.7889090490993
36	53	52	2.4196234343341
36	54	53	0.81854913196114
36	55	54	-0.11982696047053
36	56	55	0.49995563577395
36	57	56	0.046492679580114
36	58	57	-0.24535657553933
36	59	58	0.1429475602461
36	60	59	-0.073142862529494
36	61	60	-0.99401721342001
36	62	61	0.15195170817897
34	32	31	12.851433033972
34	33	32	12.769649680923
34	34	33	12.671606555312
34	35	34	12.252551775622
34	36	35	12.491256452641
34	37	36	11.182712512776
34	38	37	6.6827125127763
34	39	38	4.4559010278304
34	40	39	0.019238575019965
34	41	40	0.0086021085449844
34	42	41	0.001711833873443
34	43	42	0.0014134267058283
34	44	43	0.00016815474048389
34	45	44	0
34	46	45	0
34	47	46	0
34	48	47	1.6989207046106
34	49	48	3.9058883665362
34	50	49	5.2071356965229
34	51	50	7.6163530362071
34	52	51	9.4052620853065
34	53	52	11.824885519641
34	54	53	12.643434651602
34	55	54	12.523607691131
34	56	55	13.023563326905
34	57	56	13.070056006485
34	58	57	12.824699430946
34	59	58	12.967646991192
34	60	59	12.894504128662
34	61	60	11.900486915242
34	62	61	12.052438623421
31	31	30	28.571856717077
31	32	31	28.571856717077
31	33	32	33.918699757704
31	34	33	39.23151680676
31	35	34	44.503542980396
31	36	35	49.601221271854
31	37	36	54.798212724554
31	38	37	59.450784030509
31	39	38	62.231128821397
31	40	39	64.085007944247
31	41	40	64.093012159861
31	42	41	64.096591070017
31	43	42	64.097303279077
31	44	43	64.097891335734
31	45	44	64.09796129657
31	46	45	64.09796129657
31	47	46	64.09796129657
31	48	47	64.09796129657
31	49	48	64.86829944291
31	50	49	66.678430344314
31	51	50	68.798126927275
31	52	51	69.375246885525
31	53	52	69.363746666957
31	54	53	69.349287870724
31	55	54	69.333828199253
31	56	55	69.318515045361
31	57	56	69.302590574205
31	58	57	69.28660925445
31	59	58	69.270927942735
31	60	59	69.255071842888
31	61	60	69.239305177966
31	62	61	69.224753940654
30	31	30	48.407796666299
30	32	31	48.407796666299
30	33	32	60.0945286824
30	34	33	71.706889215731
30	35	34	83.230092086098
30	36	35	94.372218317202
30	37	36	105.73141587288
30	38	37	115.9006603458
30	39	38	121.97773128964
30	40	39	126.02980245283
30	41	40	126.04729747226
30	42	41	126.05511998801
30	43	42	126.05667668162
30	44	43	126.05796201214
30	45	44	126.05811492734
30	46	45	126.05811492734
30	47	46	126.05811492734
30	48	47	126.05811492734
30	49	48	127.57212317255
30	50	49	131.03274432653
30	51	50	135.78051530702
30	52	51	143.34725545461
30	53	52	152.75251753992
30	54	53	164.57740305956
30	55	54	177.22083771116
30	56	55	189.74444540229
30	57	56	202.7680087292
30	58	57	215.83806473568
30	59	58	228.66276416663
30	60	59	241.63041115782
30	61	60	254.52491528648
30	62	61	266.42540220173
54	48	47	2.4624145751392
54	49	48	0.973
54	50	49	1.6527423499168
54	51	50	2.2786459877353
54	52	51	1.7669928787712
54	53	52	0.973
54	54	53	1.5304783752664
54	55	54	3.132299878117
54	56	55	0.973
54	57	56	0.973
54	58	57	2.8699249564835
54	59	58	1.4514703807892
54	60	59	0.973
54	61	60	2.6549181434978
54	62	61	0.973
54	63	62	2.2193772928372
54	64	63	6.5829013222724
53	48	47	0.070937185222283
53	49	48	-0.47726873503998
53	50	49	-0.13319220212288
53	51	50	0.040274230996147
53	52	51	-0.099866906800532
53	53	52	-0.79404324086813
53	54	53	-0.14782906643902
53	55	54	0.31502992538534
53	56	55	-0.30012831231059
53	57	56	-0.40470849570311
53	58	57	0.25967602792227
53	59	58	-0.1661422405832
53	60	59	-0.32054186135455
53	61	60	0.20729095233545
53	62	61	-1.5865112739582
53	63	62	0.12872712982339
53	64	63	1.4240510800621
50	47	46	15.396442158105
50	48	47	15.467379343327
50	49	48	14.990110608287
50	50	49	14.856918406164
50	51	50	14.89719263716
50	52	51	14.79732573036
50	53	52	14.003282489491
50	54	53	13.855453423052
50	55	54	14.170483348438
50	56	55	13.870355036127
50	57	56	13.465646540424
50	58	57	13.725322568346
50	59	58	13.559180327763
50	60	59	13.238638466409
50	61	60	13.445929418744
50	62	61	11.859418144786
50	63	62	11.988145274609
50	64	63	13.412196354671
48	46	45	68.133230370666
48	47	46	68.133230370666
48	48	47	68.082604365164
48	49	48	68.031745106661
48	50	49	67.982455185371
48	51	50	67.933603221699
48	52	51	67.884618829808
48	53	52	67.835962816545
48	54	53	68.916154775228
48	55	54	69.369247069742
48	56	55	69.351920210135
48	57	56	69.334960330327
48	58	57	69.318495305008
48	59	58	69.301712762638
48	60	59	69.285133369533
48	61	60	69.268945916751
48	62	61	69.252505000405
48	63	62	69.238003979645
48	64	63	69.223345558686
47	46	45	30.099491829414
47	47	46	30.099491829414
47	48	47	45.49439986614
47	49	48	60.960238019815
47	50	49	75.948854994123
47	51	50	90.804293037752
47	52	51	105.7000012994
47	53	52	120.49585260512
47	54	53	134.42402301257
47	55	54	148.25410479595
47	56	55	162.42458814438
47	57	56	176.29494318051
47	58	57	189.76058972093
47	59	58	203.48591228928
47	60	59	217.04509261704
47	61	60	230.28373108345
47	62	61	243.7296605022
47	63	62	255.58907864698
47	64	63	267.57722392159
52	48	47	0.88519030210954
52	49	48	3.1690321471
52	50	49	0.973
52	51	50	0.973
52	52	51	0.973
52	53	52	0.973
52	54	53	2.6499499711692
52	55	54	4.6156059855958
52	56	55	6.5132929764267
52	57	56	4.9058922356662
52	58	57	5.9624378535688
52	59	58	10.284256403945
52	60	59	7.2866514944314
52	61	60	10.993339749256
52	62	61	0.973
52	63	62	0.973
52	64	63	0.973
52	65	64	1.6711456601278
52	66	65	8.3759187382055
51	48	47	-0.36433714844752
51	49	48	0.19001612423454
51	50	49	-2.5465303284496
51	51	50	-3.5953221170623
51	52	51	-4.5
51	53	52	-4.5
51	54	53	1.6150351807708
51	55	54	2.2930843308568
51	56	55	2.4799598257989
51	57	56	1.3917713487754
51	58	57	1.5458235820755
51	59	58	2.5015817121137
51	60	59	1.406102049211
51	61	60	2.070708720952
51	62	61	-0.80092348529863
51	63	62	-1.849663858667
51	64	63	-0.54321293152367
51	65	64	-0.10670521011775
51	66	65	1.6465265115956
49	47	46	17.212177963695
49	48	47	16.847840815247
49	49	48	17.037856939482
49	50	49	14.491326611032
49	51	50	10.89600449397
49	52	51	6.3960044939697
49	53	52	1.8960044939697
49	54	53	3.5110396747405
49	55	54	5.8041240055973
49	56	55	8.2840838313962
49	57	56	9.6758551801715
49	58	57	11.221678762247
49	59	58	13.723260474361
49	60	59	15.129362523572
49	61	60	17.200071244524
49	62	61	16.399147759225
49	63	62	14.549483900558
49	64	63	14.006270969035
49	65	64	13.899565758917
49	66	65	15.546092270512
46	46	45	28.571856717077
46	47	46	28.571856717077
46	48	47	35.732989153898
46	49	48	42.742538997442
46	50	49	49.831145113449
46	51	50	55.860266428934
46	52	51	60.393552767136
46	53	52	63.05461259027
46	54	53	63.843445898337
46	55	54	65.415421188871
46	56	55	68.014064685929
46	57	56	69.377008604048
46	58	57	69.365177519662
46	59	58	69.351456290281
46	60	59	69.334676269322
46	61	60	69.316176946896
46	62	61	69.295145679835
46	63	62	69.275093736376
46	64	63	69.257303456489
46	65	64	69.240177386423
46	66	65	69.223181789408
45	46	45	48.407796666299
45	47	46	48.407796666299
45	48	47	64.060067564291
45	49	48	79.381020499053
45	50	49	94.874768756857
45	51	50	108.05277390331
45	52	51	117.96129416176
45	53	52	123.77764089112
45	54	53	125.5018140914
45	55	54	128.64046741022
45	56	55	133.82335230762
45	57	56	141.9064633231
45	58	57	151.58231850327
45	59	58	162.80399726552
45	60	59	176.52725773988
45	61	60	191.65662026345
45	62	61	208.85669150797
45	63	62	225.2558392672
45	64	63	239.80532316776
45	65	64	253.81159413679
45	66	65	267.71115989571
vector 70 RSUExampleScenario.node[14].veinsmobility posx ETV
vector 71 RSUExampleScenario.node[14].veinsmobility posy ETV
vector 72 RSUExampleScenario.node[14].veinsmobility speed ETV
vector 73 RSUExampleScenario.node[14].veinsmobility acceleration ETV
vector 74 RSUExampleScenario.node[14].veinsmobility co2emission ETV
59	55	54	0.973
59	56	55	4.1265159708914
59	57	56	0.973
59	58	57	2.8125702887214
59	59	58	2.6676334050469
59	60	59	0.973
59	61	60	2.3048194617587
59	62	61	1.6791132582594
59	63	62	1.9770930427446
59	64	63	2.0186400413569
59	65	64	0.973
59	66	65	1.7906738121441
59	67	66	2.9069715924803
59	68	67	1.5879276483846
59	69	68	4.3270300677499
59	70	69	1.9614450511322
59	71	70	2.0913947137275
59	72	71	1.7345069344217
59	73	72	0.973
58	55	54	-0.85870913940016
58	56	55	0.71134046129882
58	57	56	-0.46410242305137
58	58	57	0.29572632019408
58	59	58	0.23660386223346
58	60	59	-0.38995342187118
58	61	60	0.13041095095687
58	62	61	-0.073038456146605
58	63	62	0.024478459358216
58	64	63	0.036927464627659
58	65	64	-0.60973143305164
58	66	65	-0.020241854828782
58	67	66	0.34492404735647
58	68	67	-0.095968284085393
58	69	68	0.76030274047516
58	70	69	0.00608708402142
58	71	70	0.045930834976025
58	72	71	-0.065715323621406
58	73	72	-1.0392891806783
57	54	53	12.988723462002
57	55	54	12.130014322602
57	56	55	12.841354783901
57	57	56	12.37725236085
57	58	57	12.672978681044
57	59	58	12.909582543277
57	60	59	12.519629121406
57	61	60	12.650040072363
57	62	61	12.577001616216
57	63	62	12.601480075575
57	64	63	12.638407540202
57	65	64	12.028676107151
57	66	65	12.008434252322
57	67	66	12.353358299678
57	68	67	12.257390015593
57	69	68	13.017692756068
57	70	69	13.02377984009
57	71	70	13.069710675066
57	72	71	13.003995351444
57	73	72	11.964706170766
56	53	52	68.133230370666
56	54	53	68.133230370666
56	55	54	68.090521335767
56	56	55	68.050635876157
56	57	56	68.008411413436
56	58	57	67.967712994951
56	59	58	67.926042180237
56	60	59	67.883593373548
56	61	60	67.842426797123
56	62	61	68.401434080286
56	63	62	69.374868664809
56	64	63	69.359460293003
56	65	64	69.344006768397
56	66	65	69.329298788645
56	67	66	69.31461555948
56	68	67	69.299510576843
56	69	68	69.284522938756
56	70	69	69.2686056458
56	71	70	69.252680909904
56	72	71	69.2367000124
56	73	72	69.22079946785
55	53	52	30.099491829414
55	54	53	30.099491829414
55	55	54	43.086921078238
55	56	55	55.215726750549
55	57	56	68.055802005277
55	58	57	80.431821080718
55	59	58	93.103537009801
55	60	59	106.0118332256
55	61	60	118.530214875
55	62	61	131.14506154849
55	63	62	143.65657696366
55	64	63	156.25805703924
55	65	64	168.89646457944
55	66	65	180.92514068659
55	67	66	192.93357493891
55	68	67	205.28693323859
55	69	68	217.54432325418
55	70	69	230.56201601025
55	71	70	243.58579585034
55	72	71	256.65550652541
55	73	72	269.65950187685
vector 75 RSUExampleScenario.node[15].veinsmobility posx ETV
vector 76 RSUExampleScenario.node[15].veinsmobility posy ETV
vector 77 RSUExampleScenario.node[16].veinsmobility posx ETV
vector 78 RSUExampleScenario.node[16].veinsmobility posy ETV
vector 79 RSUExampleScenario.node[15].veinsmobility speed ETV
vector 80 RSUExampleScenario.node[16].veinsmobility speed ETV
vector 81 RSUExampleScenario.node[15].veinsmobility acceleration ETV
vector 82 RSUExampleScenario.node[15].veinsmobility co2emission ETV
vector 83 RSUExampleScenario.node[16].veinsmobility acceleration ETV
vector 84 RSUExampleScenario.node[16].veinsmobility co2emission ETV
69	62	61	0.973
69	63	62	1.2353003446912
69	64	63	1.8702334430783
69	65	64	2.6483748119242
69	66	65	0.973
69	67	66	3.1208613674
69	68	67	1.2900647236892
69	69	68	2.0893229030507
69	70	69	2.0395150998049
69	71	70	3.452129399813
69	72	71	0.973
69	73	72	1.612482853843
69	74	73	2.7556286796999
69	75	74	4.2975882878731
69	76	75	0.973
69	77	76	1.7238074964591
69	78	77	2.9079942572073
69	79	78	3.4710962580309
68	62	61	-0.34700946209487
68	63	62	-0.2232530871639
68	64	63	-0.018017292418516
68	65	64	0.2225552554708
68	66	65	-0.40302588464692
68	67	66	0.37420893388335
68	68	67	-0.20517260215711
68	69	68	0.051347528863698
68	70	69	0.034186216234231
68	71	70	0.45735676551703
68	72	71	-0.63328166415449
68	73	72	-0.096750022564082
68	74	73	0.2644889471354
68	75	74	0.70004441286437
68	76	75	-0.61750900605693
68	77	76	-0.067338583176024
68	78	77	0.29669028494973
68	79	78	0.44464115016162
65	61	60	13.439780531719
65	62	61	13.092771069624
65	63	62	12.869517982461
65	64	63	12.851500690042
65	65	64	13.074055945513
65	66	65	12.671030060866
65	67	66	13.045238994749
65	68	67	12.840066392592
65	69	68	12.891413921456
65	70	69	12.92560013769
65	71	70	13.382956903207
65	72	71	12.749675239053
65	73	72	12.652925216489
65	74	73	12.917414163624
65	75	74	13.617458576488
65	76	75	12.999949570431
65	77	76	12.932610987255
65	78	77	13.229301272205
65	79	78	13.673942422367
63	60	59	68.133230370666
63	61	60	68.133230370666
63	62	61	68.089038186773
63	63	62	68.04598702642
63	64	63	68.003669958523
63	65	64	67.961412134412
63	66	65	67.918422512431
63	67	66	67.876758105097
63	68	67	67.833863237936
63	69	68	68.834786151044
63	70	69	69.371067402989
63	71	70	69.355262715639
63	72	71	69.338898798496
63	73	72	69.323309222088
63	74	73	69.307837946095
63	75	74	69.292043268088
63	76	75	69.275392615661
63	77	76	69.259497018061
63	78	77	69.243683758243
63	79	78	69.227507722451
62	60	59	30.099491829414
62	61	60	30.099491829414
62	62	61	43.537933204046
62	63	62	56.629399693053
62	64	63	69.497635340123
62	65	64	82.347855490041
62	66	65	95.420608719736
62	67	66	108.0903762228
62	68	67	121.13431537309
62	69	68	133.90567473998
62	70	69	146.76537558902
62	71	70	159.69097572671
62	72	71	173.07393262992
62	73	72	185.82360786897
62	74	73	198.47653308546
62	75	74	211.39394724908
62	76	75	225.01140582557
62	77	76	238.011355396
62	78	77	250.94396638326
62	79	78	264.17326765546
vector 85 RSUExampleScenario.node[17].veinsmobility posx ETV
vector 86 RSUExampleScenario.node[17].veinsmobility posy ETV
67	62	61	1.699401621424
67	63	62	3.9069600728461
67	64	63	2.0961555935015
67	65	64	2.0490034818804
67	66	65	0.973
67	67	66	0.973
67	68	67	0.973
67	69	68	3.010456702556
67	70	69	5.0166710225955
67	71	70	6.9783560471266
67	72	71	8.3644002711075
67	73	72	3.5375899582634
67	74	73	3.741959264296
67	75	74	0.973
67	76	75	5.0306172673627
67	77	76	0.973
67	78	77	2.8583024134342
67	79	78	3.2130720014998
67	80	79	0.973
67	81	80	0.973
67	82	81	1.4716693840153
66	62	61	-0.048432755027898
66	63	62	0.66456935440656
66	64	63	0.063411711831577
66	65	64	0.046315629733726
66	66	65	-1.3938000922538
66	67	66	-3.262885676825
66	68	67	-4.4289712371492
66	69	68	1.3827012511436
66	70	69	2.0844450560166
66	71	70	2.3578617253341
66	72	71	2.3173406244256
66	73	72	0.56269943248998
66	74	73	0.58562737593893
66	75	74	-1.143609084608
66	76	75	1.0154026365606
66	77	76	-0.58719845560845
66	78	77	0.32213112453464
66	79	78	0.41370618785731
66	80	79	-0.33602209140081
66	81	80	-0.68397664343938
66	82	81	-0.12508606379852
64	61	60	11.929592305329
64	62	61	11.881159550301
64	63	62	12.545728904708
64	64	63	12.60914061654
64	65	64	12.655456246273
64	66	65	11.261656154019
64	67	66	7.9987704771945
64	68	67	3.5697992400453
64	69	68	4.9525004911889
64	70	69	7.0369455472055
64	71	70	9.3948072725395
64	72	71	11.712147896965
64	73	72	12.274847329455
64	74	73	12.860474705394
64	75	74	11.716865620786
64	76	75	12.732268257347
64	77	76	12.145069801738
64	78	77	12.467200926273
64	79	78	12.88090711413
64	80	79	12.544885022729
64	81	80	11.86090837929
64	82	81	11.735822315491
61	60	59	28.571856717077
61	61	60	28.571856717077
61	62	61	33.535167612185
61	63	62	38.478328043258
61	64	63	43.697982777979
61	65	64	48.944019976758
61	66	65	54.209326808881
61	67	66	58.894742643355
61	68	67	62.222633793432
61	69	68	63.707849969139
61	70	69	65.92730329477
61	71	70	68.864816342235
61	72	71	69.372779021636
61	73	72	69.358458074544
61	74	73	69.343449090648
61	75	74	69.327724034966
61	76	75	69.31339731931
61	77	76	69.297829027167
61	78	77	69.282978727837
61	79	78	69.267734544924
61	80	79	69.251984505656
61	81	80	69.236645335056
61	82	81	69.222142492122
60	60	59	48.407796666299
60	61	60	48.407796666299
60	62	61	59.256232631781
60	63	62	70.060625211026
60	64	63	81.469358483681
60	65	64	92.935756584912
60	66	65	104.44427281814
60	67	66	114.68530641973
60	68	67	121.95916348907
60	69	68	125.20543859002
60	70	69	129.63151901188
60	71	70	136.00924153761
60	72	71	145.36555680534
60	73	72	157.07770470231
60	74	73	169.35255203176
60	75	74	182.21302673716
60	76	75	193.92989235794
60	77	76	206.66216061529
60	78	77	218.80723041703
60	79	78	231.2744313433
60	80	79	244.15533845743
60	81	80	256.70022348016
60	82	81	268.56113185945
vector 87 RSUExampleScenario.node[17].veinsmobility speed ETV
vector 88 RSUExampleScenario.node[17].veinsmobility acceleration ETV
vector 89 RSUExampleScenario.node[17].veinsmobility co2emission ETV
74	69	68	0.973
74	70	69	1.2197239025828
74	71	70	1.1410884922204
74	72	71	3.762711785037
74	73	72	4.122882497709
74	74	73	1.8693136213832
74	75	74	0.973
74	76	75	4.370526939534
74	77	76	0.973
74	78	77	2.7477370222327
74	79	78	3.0755578325567
74	80	79	1.2988141067506
74	81	80	2.7422917244582
74	82	81	1.7614240566719
74	83	82	0.973
74	84	83	3.5532707807788
74	85	84	0.973
73	69	68	-0.29397815617267
73	70	69	-0.23479008660652
73	71	70	-0.25637890757062
73	72	71	0.53410215827171
73	73	72	0.59867519875988
73	74	73	-0.055657945200801
73	75	74	-0.62867416543886
73	76	75	0.67171953264624
73	77	76	-1.0675182409352
73	78	77	0.23737560440786
73	79	78	0.32120873164386
73	80	79	-0.21235345790628
73	81	80	0.22018037650268
73	82	81	-0.07408398555126
73	83	82	-0.35368529562838
73	84	83	0.46276015813928
73	85	84	-0.4191288230475
72	68	67	13.911013880863
72	69	68	13.61703572469
72	70	69	13.382245638084
72	71	70	13.125866730513
72	72	71	13.659968888785
72	73	72	14.258644087545
72	74	73	14.202986142344
72	75	74	13.574311976905
72	76	75	14.246031509551
72	77	76	13.178513268616
72	78	77	13.415888873024
72	79	78	13.737097604668
72	80	79	13.524744146761
72	81	80	13.744924523264
72	82	81	13.670840537713
72	83	82	13.317155242085
72	84	83	13.779915400224
72	85	84	13.360786577176
71	67	66	68.133230370666
71	68	67	68.133230370666
71	69	68	68.087488694892
71	70	69	68.0427136671
71	71	70	67.998710667294
71	72	71	67.955550683026
71	73	72	67.91063448401
71	74	73	67.863749743587
71	75	74	67.879390393628
71	76	75	69.379679551983
71	77	76	69.36226031639
71	78	77	69.346146381274
71	79	78	69.329742196795
71	80	79	69.312945256582
71	81	80	69.296407970077
71	82	81	69.279601459553
71	83	82	69.262885534706
71	84	83	69.246602076085
71	85	84	69.22975278071
70	67	66	30.099491829414
70	68	67	30.099491829414
70	69	68	44.00911959889
70	70	69	57.624798504556
70	71	70	71.005710718403
70	72	71	84.130269570605
70	73	72	97.78887736245
70	74	73	112.04610070028
70	75	74	126.24580510388
70	76	75	139.72207306973
70	77	76	153.96810457928
70	78	77	167.1466178479
70	79	78	180.56250672092
70	80	79	194.29960432559
70	81	80	207.82434847235
70	82	81	221.56927299561
70	83	82	235.24011353333
70	84	83	248.55726877541
70	85	84	262.33718417563
vector 90 RSUExampleScenario.node[18].veinsmobility posx ETV
vector 91 RSUExampleScenario.node[18].veinsmobility posy ETV
vector 92 RSUExampleScenario.node[19].veinsmobility posx ETV
vector 93 RSUExampleScenario.node[19].veinsmobility posy ETV
vector 94 RSUExampleScenario.node[18].veinsmobility speed ETV
vector 95 RSUExampleScenario.node[19].veinsmobility speed ETV
vector 96 RSUExampleScenario.node[18].veinsmobility acceleration ETV
vector 97 RSUExampleScenario.node[18].veinsmobility co2emission ETV
vector 98 RSUExampleScenario.node[19].veinsmobility acceleration ETV
vector 99 RSUExampleScenario.node[19].veinsmobility co2emission ETV
84	76	75	0.973
84	77	76	1.3515224520251
84	78	77	1.5092162445436
84	79	78	4.0398548792544
84	80	79	2.0841313104708
84	81	80	3.3562802172877
84	82	81	1.3152205801606
84	83	82	0.973
84	84	83	2.1944455779423
84	85	84	2.4366310490805
84	86	85	2.1922877346521
84	87	86	0.973
84	88	87	5.2360582718956
84	89	88	0.973
84	90	89	0.973
84	91	90	5.4821607622985
84	92	91	2.2000999810096
83	76	75	-0.71784383209888
83	77	76	-0.19698729640804
83	78	77	-0.14595106407069
83	79	78	0.59153276337311
83	80	79	0.012372770509682
83	81	80	0.36755997741129
83	82	81	-0.2172453249339
83	83	82	-0.58077984182164
83	84	83	0.057696972740814
83	85	84	0.12624174717348
83	86	85	0.050963900634088
83	87	86	-0.37290548221208
83	88	87	0.9114817581838
83	89	88	-0.31890076035634
83	90	89	-0.57973326726351
83	91	90	0.97500081753824
83	92	91	0.031693648383952
80	75	74	14.490357449058
80	76	75	13.772513616959
80	77	76	13.575526320551
80	78	77	13.429575256481
80	79	78	14.021108019854
80	80	79	14.033480790363
80	81	80	14.401040767775
80	82	81	14.183795442841
80	83	82	13.603015601019
80	84	83	13.66071257376
80	85	84	13.786954320933
80	86	85	13.837918221568
80	87	86	13.465012739355
80	88	87	14.376494497539
80	89	88	14.057593737183
80	90	89	13.477860469919
80	91	90	14.452861287458
80	92	91	14.484554935842
78	74	73	68.133230370666
78	75	74	68.133230370666
78	76	75	68.08558371903
78	77	76	68.040297454645
78	78	77	67.995658916525
78	79	78	67.951500289237
78	80	79	67.905396606031
78	81	80	67.859252239143
78	82	81	67.982976884184
78	83	82	69.377019689019
78	84	83	69.36038669664
78	85	84	69.343683155689
78	86	85	69.326825253524
78	87	86	69.309905035605
78	88	87	69.293440785261
78	89	88	69.27586202696
78	90	89	69.258673202337
78	91	90	69.242193242521
78	92	91	69.22452110726
77	74	73	30.099491829414
77	75	74	30.099491829414
77	76	75	44.588405440544
77	77	76	58.359546746461
77	78	77	71.933720384039
77	79	78	85.361957500299
77	80	79	99.381668438843
77	81	80	113.41375091506
77	82	81	127.80823466977
77	83	82	141.89739766388
77	84	83	155.5004132649
77	85	84	169.16112583866
77	86	85	182.94808015959
77	87	86	196.78599838116
77	88	87	210.25101112052
77	89	88	224.62750561806
77	90	89	238.68509935524
77	91	90	252.16295982516
77	92	91	266.61582111262
vector 100 RSUExampleScenario.node[20].veinsmobility posx ETV
vector 101 RSUExampleScenario.node[20].veinsmobility posy ETV
82	76	75	0.973
82	77	76	5.793766376526
82	78	77	0.973
82	79	78	2.7434449140052
82	80	79	0.973
82	81	80	0.973
82	82	81	0.973
82	83	82	2.890572576558
82	84	83	4.0722248275544
82	85	84	5.386171686124
82	86	85	4.586774384993
82	87	86	6.1621718877935
82	88	87	9.4896413663868
82	89	88	5.312603570076
82	90	89	0.973
82	91	90	4.3010366732352
82	92	91	2.7790995444156
82	93	92	0.973
82	94	93	2.7120275593084
82	95	94	1.7182560616587
82	96	95	0.973
81	76	75	-1.2419952036813
81	77	76	1.0832615278894
81	78	77	-0.68856625377666
81	79	78	0.21782021740317
81	80	79	-4.5
81	81	80	-4.5
81	82	81	-3.6520578432246
81	83	82	2.0813117570244
81	84	83	2.0957160377176
81	85	84	2.1507710573962
81	86	85	1.395263106958
81	87	86	1.7329938989831
81	88	87	2.4066551067401
81	89	88	0.97170632122918
81	90	89	-0.65158827188425
81	91	90	0.67013661547098
81	92	91	0.20963729834184
81	93	92	-0.36867422543
81	94	93	0.19760736450553
81	95	94	-0.093815182265825
81	96	95	-0.29399337703362
79	75	74	14.432919442072
79	76	75	13.190924238391
79	77	76	14.27418576628
79	78	77	13.585619512504
79	79	78	13.803439729907
79	80	79	9.303439729907
79	81	80	4.803439729907
79	82	81	1.1513818866824
79	83	82	3.2326936437068
79	84	83	5.3284096814244
79	85	84	7.4791807388206
79	86	85	8.8744438457786
79	87	86	10.607437744762
79	88	87	13.014092851502
79	89	88	13.985799172731
79	90	89	13.334210900847
79	91	90	14.004347516318
79	92	91	14.21398481466
79	93	92	13.84531058923
79	94	93	14.042917953735
79	95	94	13.949102771469
79	96	95	13.655109394436
76	74	73	28.571856717077
76	75	74	28.571856717077
76	76	75	34.576677710252
76	77	76	40.064766180778
76	78	77	46.003545974697
76	79	78	51.655847546904
76	80	79	57.398773293898
76	81	80	61.269472525824
76	82	81	63.267945242683
76	83	82	63.746978064286
76	84	83	65.182870961643
76	85	84	67.647444317603
76	86	85	69.379198327981
76	87	86	69.368347163711
76	88	87	69.355376993246
76	89	88	69.339464102048
76	90	89	69.322363063728
76	91	90	69.30605875042
76	92	91	69.288935032242
76	93	92	69.271554981521
76	94	93	69.254625724636
76	95	94	69.237454844725
76	96	95	69.220398676673
75	74	73	48.407796666299
75	75	74	48.407796666299
75	76	75	61.532687974809
75	77	76	73.528143750928
75	78	77	86.508687115827
75	79	78	98.863067681453
75	80	79	111.41552783103
75	81	80	119.87581445151
75	82	81	124.24392754291
75	83	82	125.29096187148
75	84	83	128.18637525055
75	85	84	132.90820070119
75	86	85	140.1156340996
75	87	86	148.99007794538
75	88	87	159.59751569014
75	89	88	172.61160854165
75	90	89	186.59740771438
75	91	90	199.93161861522
75	92	91	213.93596613154
75	93	92	228.1499509462
75	94	93	241.99526153543
75	95	94	256.03817948916
75	96	95	269.98728226063
vector 102 RSUExampleScenario.node[20].veinsmobility speed ETV
vector 103 RSUExampleScenario.node[20].veinsmobility acceleration ETV
vector 104 RSUExampleScenario.node[20].veinsmobility co2emission ETV
vector 105 RSUExampleScenario.node[21].veinsmobility posx ETV
vector 106 RSUExampleScenario.node[21].veinsmobility posy ETV
vector 107 RSUExampleScenario.node[22].veinsmobility posx ETV
vector 108 RSUExampleScenario.node[22].veinsmobility posy ETV
vector 109 RSUExampleScenario.node[21].veinsmobility speed ETV
vector 110 RSUExampleScenario.node[22].veinsmobility speed ETV
vector 111 RSUExampleScenario.node[21].veinsmobility acceleration ETV
vector 112 RSUExampleScenario.node[21].veinsmobility co2emission ETV
vector 113 RSUExampleScenario.node[22].veinsmobility acceleration ETV
vector 114 RSUExampleScenario.node[22].veinsmobility co2emission ETV
89	84	83	1.3102431966849
89	85	84	3.6189929618545
89	86	85	1.7380361842793
89	87	86	0.973
89	88	87	2.6034088763006
89	89	88	0.973
89	90	89	0.973
89	91	90	3.0247056357968
89	92	91	1.3058514927681
89	93	92	2.2511757243861
89	94	93	0.973
89	95	94	0.973
89	96	95	2.6338019372288
89	97	96	2.1760023877533
89	98	97	1.9992669259048
89	99	98	2.0596583949855
89	100	99	1.7540139465108
89	101	100	1.807733833646
89	102	101	1.2986178589862
89	103	102	2.2885455011047
89	104	103	0.973
89	105	104	2.0292909173579
89	106	105	1.5764329927937
89	107	106	2.8595318701032
89	108	107	1.3040118381097
89	109	108	2.7261838020956
88	84	83	-0.13487010265235
88	85	84	0.84714842620306
88	86	85	0.034211027808487
88	87	86	-0.3274006403517
88	88	87	0.40093424348161
88	89	88	-0.21945663117804
88	90	89	-0.49611811703071
88	91	90	0.59214988518506
88	92	91	-0.14841725367587
88	93	92	0.2517700095661
88	94	93	-0.21243814348709
88	95	94	-0.58267284783069
88	96	95	0.44254623248708
88	97	96	0.22655195051339
88	98	97	0.14323923282791
88	99	98	0.1611952413572
88	100	99	0.031740127294325
88	101	100	0.052295203995891
88	102	101	-0.15724256897811
88	103	102	0.24740622714162
88	104	103	-1.1360261395806
88	105	104	0.18693238301203
88	106	105	-0.018844926846214
88	107	106	0.52005651867949
88	108	107	-0.14934143207502
88	109	108	0.43980916349683
87	83	82	8.9028140715462
87	84	83	8.7679439688939
87	85	84	9.615092395097
87	86	85	9.6493034229054
87	87	86	9.3219027825537
87	88	87	9.7228370260354
87	89	88	9.5033803948573
87	90	89	9.0072622778266
87	91	90	9.5994121630117
87	92	91	9.4509949093358
87	93	92	9.7027649189019
87	94	93	9.4903267754148
87	95	94	8.9076539275841
87	96	95	9.3502001600712
87	97	96	9.5767521105846
87	98	97	9.7199913434125
87	99	98	9.8811865847697
87	100	99	9.912926712064
87	101	100	9.9652219160599
87	102	101	9.8079793470818
87	103	102	10.055385574223
87	104	103	8.9193594346428
87	105	104	9.1062918176548
87	106	105	9.0874468908086
87	107	106	9.6075034094881
87	108	107	9.458161977413
87	109	108	9.8979711409099
86	82	81	68.133230370666
86	83	82	68.133230370666
86	84	83	68.103956470271
86	85	84	68.075126044706
86	86	85	68.043510057356
86	87	86	68.011781578584
86	88	87	67.981129646358
86	89	88	67.949159377141
86	90	89	67.917910717015
86	91	90	67.888293373933
86	92	91	67.856728945736
86	93	92	67.825652537605
86	94	93	68.735495975155
86	95	94	69.376008923856
86	96	95	69.36511715219
86	97	96	69.353684260207
86	98	97	69.341974353408
86	99	98	69.330089301837
86	100	99	69.318007149909
86	101	100	69.305886187962
86	102	101	69.29370128242
86	103	102	69.281708644131
86	104	103	69.269413491605
86	105	104	69.258507407112
86	106	105	69.247372752352
86	107	106	69.236261140095
86	108	107	69.22451363236
86	109	108	69.212948730819
85	82	81	30.099491829414
85	83	82	30.099491829414
85	84	83	39.00141881307
85	85	84	47.768489132704
85	86	85	57.382623467578
85	87	86	67.03096542143
85	88	87	76.351939357553
85	89	88	86.073807587551
85	90	89	95.576241053314
85	91	90	104.5826058359
85	92	91	114.18106150108
85	93	92	123.63111470108
85	94	93	133.27315954543
85	95	94	142.72403510638
85	96	95	151.63168903396
85	97	96	160.98188919403
85	98	97	170.55864130462
85	99	98	180.27863264803
85	100	99	190.1598192328
85	101	100	200.07274594487
85	102	101	210.03796786093
85	103	102	219.84594720801
85	104	103	229.90133278223
85	105	104	238.82069221687
85	106	105	247.92698403453
85	107	106	257.01443092534
85	108	107	266.62193433483
85	109	108	276.08009631224
vector 115 RSUExampleScenario.node[23].veinsmobility posx ETV
vector 116 RSUExampleScenario.node[23].veinsmobility posy ETV
99	91	90	0.973
99	92	91	2.810544022879
99	93	92	0.973
99	94	93	2.4331912419797
99	95	94	2.8590490158197
99	96	95	0.973
99	97	96	4.899004023609
99	98	97	0.973
99	99	98	1.4433450750313
99	100	99	1.867034242267
99	101	100	0.973
99	102	101	1.5433462842114
99	103	102	3.2324755918926
99	104	103	4.122211841268
99	105	104	0.973
99	106	105	0.973
99	107	106	3.6615426336606
99	108	107	0.973
99	109	108	2.0103216214254
99	110	109	0.973
98	91	90	-0.44175550350919
98	92	91	0.31324151488952
98	93	92	-0.5435794595629
98	94	93	0.20220438353717
98	95	94	0.33018990345299
98	96	95	-0.35090933984611
98	97	96	0.9516565449303
98	98	97	-0.28007158979308
98	99	98	-0.149418889964
98	100	99	-0.008530375896953
98	101	100	-0.62840416382533
98	102	101	-0.10035272561945
98	103	102	0.4628616518341
98	104	103	0.70250013791956
98	105	104	-1.9318165726441
98	106	105	-0.95288652602477
98	107	106	0.73727579037577
98	108	107	-0.83486676660887
98	109	108	0.13158300716083
98	110	109	-0.3473775852681
95	90	89	12.4691983708
95	91	90	12.027442867291
95	92	91	12.34068438218
95	93	92	11.797104922617
95	94	93	11.999309306155
95	95	94	12.329499209608
95	96	95	11.978589869762
95	97	96	12.930246414692
95	98	97	12.650174824899
95	99	98	12.500755934935
95	100	99	12.492225559038
95	101	100	11.863821395212
95	102	101	11.763468669593
95	103	102	12.226330321427
95	104	103	12.928830459347
95	105	104	10.997013886703
95	106	105	10.044127360678
95	107	106	10.781403151054
95	108	107	9.9465363844448
95	109	108	10.078119391606
95	110	109	9.7307418063375
93	89	88	68.133230370666
93	90	89	68.133230370666
93	91	90	68.092229618749
93	92	91	68.052681430764
93	93	92	68.01210325374
93	94	93	67.973312454373
93	95	94	67.933856774111
93	96	95	67.893315375754
93	97	96	67.853927824368
93	98	97	67.992798959603
93	99	98	69.378713368452
93	100	99	69.363428156385
93	101	100	69.348153374776
93	102	101	69.333646969973
93	103	102	69.319263270764
93	104	103	69.304313610701
93	105	104	69.288504973498
93	106	105	69.275058451525
93	107	106	69.262777064901
93	108	107	69.249594179451
93	109	108	69.237432121512
93	110	109	69.225109171369
92	89	88	30.099491829414
92	90	89	30.099491829414
92	91	90	42.567447753186
92	92	91	54.593692190538
92	93	92	66.933146930991
92	94	93	78.729076374839
92	95	94	90.72719005432
92	96	95	103.0554607367
92	97	96	115.0328570443
92	98	97	127.95638430735
92	99	98	140.512250168
92	100	99	153.01300610294
92	101	100	165.50523166198
92	102	101	177.36905305719
92	103	102	189.13252172678
92	104	103	201.35885204821
92	105	104	214.28768250756
92	106	105	225.28469639426
92	107	106	235.32882375494
92	108	107	246.11022690599
92	109	108	256.05676329043
92	110	109	266.13488268204
vector 117 RSUExampleScenario.node[23].veinsmobility speed ETV
vector 118 RSUExampleScenario.node[23].veinsmobility acceleration ETV
vector 119 RSUExampleScenario.node[23].veinsmobility co2emission ETV
104	98	97	5.1633622257984
104	99	98	0.973
104	100	99	2.0476825025727
104	101	100	3.8902071074018
104	102	101	2.7913804291101
104	103	102	3.2148857493796
104	104	103	0.973
104	105	104	3.4667213730375
104	106	105	3.1793363605741
104	107	106	4.5031512127802
104	108	107	1.8489167511915
104	109	108	0.973
104	110	109	0.973
104	111	110	0.973
104	112	111	10.859379049773
103	98	97	0.7562724358635
103	99	98	-0.59350491107907
103	100	99	-0.03635562704876
103	101	100	0.43642479430418
103	102	101	0.14152329573408
103	103	102	0.24085996176582
103	104	103	-0.93097725629341
103	105	104	0.33598383388016
103	106	105	0.24766860303935
103	107	106	0.55807830167469
103	108	107	-0.11255690709222
103	109	108	-1.4476619039532
103	110	109	-0.65754750224927
103	111	110	-1.9909137589034
103	112	111	2.4828157607932
102	97	96	15.200415076784
102	98	97	15.956687512647
102	99	98	15.363182601568
102	100	99	15.32682697452
102	101	100	15.763251768824
102	102	101	15.904775064558
102	103	102	16.145635026324
102	104	103	15.21465777003
102	105	104	15.55064160391
102	106	105	15.79831020695
102	107	106	16.356388508624
102	108	107	16.243831601532
102	109	108	14.796169697579
102	110	109	14.13862219533
102	111	110	12.147708436426
102	112	111	14.630524197219
101	96	95	68.133230370666
101	97	96	68.133230370666
101	98	97	68.083248934084
101	99	98	68.030780750752
101	100	99	67.980264108081
101	101	100	67.929867008623
101	102	101	67.878034873472
101	103	102	67.825737386711
101	104	103	69.379766732392
101	105	104	69.3611631158
101	106	105	69.342148677319
101	107	106	69.322831403783
101	108	107	69.302831743899
101	109	108	69.282969712187
101	110	109	69.264877798964
101	111	110	69.24758989736
101	112	111	69.232736371658
100	96	95	30.099491829414
100	97	96	30.099491829414
100	98	97	45.298392317211
100	99	98	61.253489884909
100	100	99	76.615141679123
100	101	100	91.940441468811
100	102	101	107.70212256687
100	103	102	123.6053128591
100	104	103	139.65077402522
100	105	104	154.86543179526
100	106	105	170.41607339917
100	107	106	186.21438360612
100	108	107	202.57077211474
100	109	108	218.81460371627
100	110	109	233.61077341385
100	111	110	247.74939560918
100	112	111	259.89710404561
vector 120 RSUExampleScenario.node[24].veinsmobility posx ETV
vector 121 RSUExampleScenario.node[24].veinsmobility posy ETV
vector 122 RSUExampleScenario.node[25].veinsmobility posx ETV
vector 123 RSUExampleScenario.node[25].veinsmobility posy ETV
97	91	90	1.909951288464
97	92	91	3.7651113763201
97	93	92	0.973
97	94	93	0.973
97	95	94	0.973
97	96	95	0.973
97	97	96	0.973
97	98	97	0.973
97	99	98	0.973
97	100	99	1.1100238726527
97	101	100	0.973
97	102	101	0.973
97	103	102	0.973
97	104	103	0.973
97	105	104	2.4396476599225
97	106	105	2.9662407351612
97	107	106	4.4687641251016
97	108	107	3.9910662421371
97	109	108	5.1585216155019
97	110	109	5.274181321391
97	111	110	9.2777321273759
97	112	111	6.5260514256272
97	113	112	4.3304296449209
97	114	113	0.973
97	115	114	2.1270803292887
97	116	115	5.6233763578693
97	117	116	2.1671386226599
97	118	117	0.973
96	91	90	-0.060719833848998
96	92	91	0.43222997805569
96	93	92	-0.41795217394829
96	94	93	-2.679750142159
96	95	94	-4.2491287989658
96	96	95	-3.6610328663207
96	97	96	-3.4804625034827
96	98	97	-0.42378580473828
96	99	98	-0.27596916898576
96	100	99	-0.076190502435092
96	101	100	-0.00079900199389364
96	102	101	0
96	103	102	0
96	104	103	0
96	105	104	2.2499937457033
96	106	105	1.7293301475234
96	107	106	2.0842022907455
96	108	107	1.383799205604
96	109	108	1.6208242931403
96	110	109	1.4072346487083
96	111	110	2.3740862665698
96	112	111	1.3101208676889
96	113	112	0.62022503244225
96	114	113	-0.38675516294315
96	115	114	0.013225482567215
96	116	115	0.93074623621069
96	117	116	-0.0041984341805801
96	118	117	-0.7064881330356
94	90	89	14.893560818823
94	91	90	14.832840984974
94	92	91	15.26507096303
94	93	92	14.847118789081
94	94	93	12.167368646922
94	95	94	7.9182398479564
94	96	95	4.2572069816357
94	97	96	0.77674447815303
94	98	97	0.35295867341475
94	99	98	0.076989504428985
94	100	99	0.00079900199389364
94	101	100	0
94	102	101	0
94	103	102	0
94	104	103	0
94	105	104	2.2499937457033
94	106	105	3.9793238932267
94	107	106	6.0635261839721
94	108	107	7.4473253895761
94	109	108	9.0681496827165
94	110	109	10.475384331425
94	111	110	12.849470597995
94	112	111	14.159591465683
94	113	112	14.779816498126
94	114	113	14.393061335182
94	115	114	14.40628681775
94	116	115	15.33703305396
94	117	116	15.33283461978
94	118	117	14.626346486744
91	89	88	28.571856717077
91	90	89	28.571856717077
91	91	90	34.768327710138
91	92	91	40.939536195884
91	93	92	47.290574109523
91	94	93	53.467722880474
91	95	94	58.529960702557
91	96	95	61.824347057226
91	97	96	63.59555945526
91	98	97	63.918724256911
91	99	98	64.06557283182
91	100	99	64.097604341059
91	101	100	64.097936766107
91	102	101	64.097936766107
91	103	102	64.097936766107
91	104	103	64.097936766107
91	105	104	64.097936766107
91	106	105	65.119447001618
91	107	106	66.973431592165
91	108	107	69.048047471376
91	109	108	69.37364287601
91	110	109	69.36255485928
91	111	110	69.349746156205
91	112	111	69.334034555718
91	113	112	69.316721014085
91	114	113	69.298649096623
91	115	114	69.281050081336
91	116	115	69.263434894683
91	117	116	69.244681644566
91	118	117	69.225933528055
90	89	88	48.407796666299
90	90	89	48.407796666299
90	91	90	61.951582296662
90	92	91	75.440151016633
90	93	92	89.321777530976
90	94	93	102.82333008473
90	95	94	113.88799317264
90	96	95	121.08861795103
90	97	96	124.96000233283
90	98	97	125.66635193113
90	99	98	125.98732262896
90	100	99	126.05733472052
90	101	100	126.05806131048
90	102	101	126.05806131048
90	103	102	126.05806131048
90	104	103	126.05806131048
90	105	104	126.05806131048
90	106	105	128.06252964813
90	107	106	131.58306829182
90	108	107	137.23654438374
90	109	108	144.65906790289
90	110	109	153.72721758561
90	111	110	164.20260191703
90	112	111	177.05207251503
90	113	112	191.21166398071
90	114	113	205.99148047884
90	115	114	220.38454181402
90	116	115	234.79082863177
90	117	116	250.12786168573
90	118	117	265.46069630551
vector 124 RSUExampleScenario.node[24].veinsmobility speed ETV
vector 125 RSUExampleScenario.node[25].veinsmobility speed ETV
vector 126 RSUExampleScenario.node[24].veinsmobility acceleration ETV
vector 127 RSUExampleScenario.node[24].veinsmobility co2emission ETV
vector 128 RSUExampleScenario.node[25].veinsmobility acceleration ETV
vector 129 RSUExampleScenario.node[25].veinsmobility co2emission ETV
114	105	104	0.973
114	106	105	4.1376828256995
114	107	106	1.2048553589429
114	108	107	3.6106579848494
114	109	108	0.973
114	110	109	1.4902807997934
114	111	110	2.1259176363819
114	112	111	2.119989523047
114	113	112	3.3322099814919
114	114	113	4.4424138306235
114	115	114	0.973
114	116	115	0.973
114	117	116	3.22666731446
114	118	117	2.4592594114076
114	119	118	0.973
114	120	119	5.9106304522512
114	121	120	0.973
114	122	121	3.6077819441045
113	105	104	-0.935257760901
113	106	105	0.64929042886943
113	107	106	-0.23966869292781
113	108	107	0.47371142215561
113	109	108	-1.0675071916077
113	110	109	-0.13721274319105
113	111	110	0.068456319882534
113	112	111	0.064246391435153
113	113	112	0.42939589896705
113	114	113	0.71635432979092
113	115	114	-0.28531129648909
113	116	115	-0.96639542668126
113	117	116	0.40426823101006
113	118	117	0.15471575774718
113	119	118	-0.46941220043227
113	120	119	1.1539566485444
113	121	120	-1.1439664517296
113	122	121	0.51062813347671
110	104	103	13.929417849698
110	105	104	12.994160088797
110	106	105	13.643450517666
110	107	106	13.403781824738
110	108	107	13.877493246894
110	109	108	12.809986055286
110	110	109	12.672773312095
110	111	110	12.741229631978
110	112	111	12.805476023413
110	113	112	13.23487192238
110	114	113	13.951226252171
110	115	114	13.665914955682
110	116	115	12.699519529
110	117	116	13.10378776001
110	118	117	13.258503517758
110	119	118	12.789091317325
110	120	119	13.94304796587
110	121	120	12.79908151414
110	122	121	13.309709647617
108	103	102	68.133230370666
108	104	103	68.133230370666
108	105	104	68.087428179649
108	106	105	68.044701268237
108	107	106	67.999839384311
108	108	107	67.955765570021
108	109	108	67.910134115542
108	110	109	67.868012798302
108	111	110	67.826342658874
108	112	111	69.154608514601
108	113	112	69.368496716669
108	114	113	69.352313869403
108	115	114	69.335255104881
108	116	115	69.318545202754
108	117	116	69.303016953891
108	118	117	69.286994388869
108	119	118	69.270782646235
108	120	119	69.255144874092
108	121	120	69.238096109512
108	122	121	69.222446121926
107	103	102	30.099491829414
107	104	103	30.099491829414
107	105	104	44.027521733929
107	106	105	57.020387067835
107	107	106	70.662478134473
107	108	107	84.064924389081
107	109	108	97.941034864627
107	110	109	110.74974451636
107	111	110	123.42125509696
107	112	111	136.06973640713
107	113	112	148.86776855056
107	114	113	162.10264047294
107	115	114	176.05386672511
107	116	115	189.7197816808
107	117	116	202.4193012098
107	118	117	215.52308896981
107	119	118	228.78159248756
107	120	119	241.57068380489
107	121	120	255.51373177076
107	122	121	268.3128132849
vector 130 RSUExampleScenario.node[26].veinsmobility posx ETV
vector 131 RSUExampleScenario.node[26].veinsmobility posy ETV
112	105	104	2.3049739904569
112	106	105	3.0280108171814
112	107	106	2.1847980405507
112	108	107	0.973
112	109	108	0.973
112	110	109	0.973
112	111	110	0.973
112	112	111	4.4230941535254
112	113	112	5.5146027134632
112	114	113	5.3379729472382
112	115	114	4.2438894875873
112	116	115	5.2895103629239
112	117	116	2.1362448272847
112	118	117	0.973
112	119	118	2.049087686859
112	120	119	2.2594874969669
112	121	120	1.3278921932684
112	122	121	2.6515839179965
112	123	122	2.475344303361
112	124	123	0.973
112	125	124	2.5799325410802
111	105	104	0.18009390446823
111	106	105	0.41318015784491
111	107	106	0.11496971789747
111	108	107	-0.33063143009785
111	109	108	-0.25472779057454
111	110	109	-2.9127246663398
111	111	110	-3.6834510179237
111	112	111	1.8378712277859
111	113	112	1.8995382485446
111	114	113	1.4997958063148
111	115	114	0.93311760774389
111	116	115	1.1658757616067
111	117	116	0.088934481702745
111	118	117	-0.92415927220136
111	119	118	0.090191902732478
111	120	119	0.15935664719436
111	121	120	-0.17115253657103
111	122	121	0.29278300274164
111	123	122	0.2195300152991
111	124	123	-0.88035672716796
111	125	124	0.28781936003361
109	104	103	11.324481045333
109	105	104	11.504574949801
109	106	105	11.917755107646
109	107	106	12.032724825543
109	108	107	11.702093395446
109	109	108	11.447365604871
109	110	109	8.5346409385313
109	111	110	4.8511899206077
109	112	111	6.6890611483936
109	113	112	8.5885993969382
109	114	113	10.088395203253
109	115	114	11.021512810997
109	116	115	12.187388572604
109	117	116	12.276323054306
109	118	117	11.352163782105
109	119	118	11.442355684837
109	120	119	11.601712332032
109	121	120	11.430559795461
109	122	121	11.723342798202
109	123	122	11.942872813502
109	124	123	11.062516086334
109	125	124	11.350335446367
106	103	102	28.571856717077
106	104	103	28.571856717077
106	105	104	33.283410868734
106	106	105	38.069893149979
106	107	106	43.028279175006
106	108	107	48.034498389872
106	109	108	52.903158286929
106	110	109	57.665838600954
106	111	110	61.216678836888
106	112	111	63.235018036664
106	113	112	66.210793294793
106	114	113	69.18251770697
106	115	114	69.369299920681
106	116	115	69.35582344282
106	117	116	69.340921398508
106	118	117	69.32591061018
106	119	118	69.312029831152
106	120	119	69.298038770604
106	121	120	69.283852857828
106	122	121	69.269876220621
106	123	122	69.255541585041
106	124	123	69.240938520668
106	125	124	69.227411906338
105	103	102	48.407796666299
105	104	103	48.407796666299
105	105	104	58.705961458379
105	106	105	69.167898585706
105	107	106	80.005570136296
105	108	107	90.947791917157
105	109	108	101.58934676777
105	110	109	111.99925932466
105	111	110	119.76042193109
105	112	111	124.17195770391
105	113	112	130.16036877801
105	114	113	138.1372412448
105	115	114	148.21088153636
105	116	115	159.23239434736
105	117	116	171.41978291996
105	118	117	183.69610597427
105	119	118	195.04826975638
105	120	119	206.49062544121
105	121	120	218.09233777325
105	122	121	229.52289756871
105	123	122	241.24624036691
105	124	123	253.18911318041
105	125	124	264.25162926674
vector 132 RSUExampleScenario.node[26].veinsmobility speed ETV
vector 133 RSUExampleScenario.node[26].veinsmobility acceleration ETV
vector 134 RSUExampleScenario.node[26].veinsmobility co2emission ETV
vector 135 RSUExampleScenario.node[27].veinsmobility posx ETV
vector 136 RSUExampleScenario.node[27].veinsmobility posy ETV
vector 137 RSUExampleScenario.node[28].veinsmobility posx ETV
vector 138 RSUExampleScenario.node[28].veinsmobility posy ETV
vector 139 RSUExampleScenario.node[27].veinsmobility speed ETV
vector 140 RSUExampleScenario.node[28].veinsmobility speed ETV
vector 141 RSUExampleScenario.node[27].veinsmobility acceleration ETV
vector 142 RSUExampleScenario.node[27].veinsmobility co2emission ETV
vector 143 RSUExampleScenario.node[28].veinsmobility acceleration ETV
vector 144 RSUExampleScenario.node[28].veinsmobility co2emission ETV
119	112	111	3.0949366920074
119	113	112	0.973
119	114	113	1.9392326973045
119	115	114	1.9588839539739
119	116	115	1.335324932855
119	117	116	1.4688321713109
119	118	117	2.5385011555755
119	119	118	2.6942250978012
119	120	119	1.2978953322543
119	121	120	2.4754542648003
119	122	121	0.973
119	123	122	4.3597778599046
119	124	123	0.973
119	125	124	0.973
119	126	125	2.1042373746266
119	127	126	2.9698658122933
119	128	127	0.973
119	129	128	2.0691865719112
119	130	129	0.973
119	131	130	2.4756572405827
119	132	131	0.973
119	133	132	0.973
119	134	133	3.1865865169415
119	135	134	0.973
119	136	135	2.4644848318233
118	112	111	0.60783848424908
118	113	112	-0.386419930798
118	114	113	0.12768120772671
118	115	114	0.13029239398893
118	116	115	-0.1361423486378
118	117	116	-0.075943219149485
118	118	117	0.36911954011302
118	119	118	0.40533520225435
118	120	119	-0.16093712265138
118	121	120	0.30720333363861
118	122	121	-1.1790347248316
118	123	122	1.0775922534289
118	124	123	-0.43838914195076
118	125	124	-0.21138186077587
118	126	125	0.18561641371343
118	127	126	0.51019783988595
118	128	127	-0.69207382698078
118	129	128	0.17125002550893
118	130	129	-0.36604056942742
118	131	130	0.34548727823421
118	132	131	-0.2660845753504
118	133	132	-0.23093155401293
118	134	133	0.63505050514359
118	135	134	-0.20247886299621
118	136	135	0.32378821128514
117	111	110	9.1453548080616
117	112	111	9.7531932923106
117	113	112	9.3667733615126
117	114	113	9.4944545692394
117	115	114	9.6247469632283
117	116	115	9.4886046145905
117	117	116	9.412661395441
117	118	117	9.781780935554
117	119	118	10.187116137808
117	120	119	10.026179015157
117	121	120	10.333382348796
117	122	121	9.154347623964
117	123	122	10.231939877393
117	124	123	9.7935507354421
117	125	124	9.5821688746663
117	126	125	9.7677852883797
117	127	126	10.277983128266
117	128	127	9.5859093012849
117	129	128	9.7571593267938
117	130	129	9.3911187573664
117	131	130	9.7366060356006
117	132	131	9.4705214602502
117	133	132	9.2395899062373
117	134	133	9.8746404113809
117	135	134	9.6721615483846
117	136	135	9.9959497596698
116	110	109	68.133230370666
116	111	110	68.133230370666
116	112	111	68.103158956889
116	113	112	68.071088871332
116	114	113	68.040289397345
116	115	114	68.009070086785
116	116	115	67.977422353646
116	117	116	67.946222278687
116	118	117	67.915271917383
116	119	118	67.883107831007
116	120	119	67.849610936572
116	121	120	67.8875342028
116	122	121	69.190559821235
116	123	122	69.372298436847
116	124	123	69.359787403779
116	125	124	69.347812407974
116	126	125	69.336095877864
116	127	126	69.324152386581
116	128	127	69.311585054449
116	129	128	69.299863950759
116	130	129	69.287933452295
116	131	130	69.276450527383
116	132	131	69.264545160313
116	133	132	69.2529651463
116	134	133	69.241667502233
116	135	134	69.229593354593
116	136	135	69.21776678657
115	110	109	30.099491829414
115	111	110	30.099491829414
115	112	111	39.243935382513
115	113	112	48.996156854049
115	114	113	58.361996898168
115	115	114	67.855505427693
115	116	115	77.479293368705
115	117	116	86.966952526479
115	118	117	96.378676032183
115	119	118	106.15948229845
115	120	119	116.34558337885
115	121	120	126.36864089223
115	122	121	136.61050397775
115	123	122	145.75859506566
115	124	123	155.99053494306
115	125	124	165.7840856785
115	126	125	175.36625455316
115	127	126	185.13403984154
115	128	127	195.41202296981
115	129	128	204.99793227109
115	130	129	214.75509159789
115	131	130	224.14621035525
115	132	131	233.88281639086
115	133	132	243.35333785111
115	134	133	252.59292775734
115	135	134	262.46756816872
115	136	135	272.13972971711
129	120	119	4.5261976184281
129	121	120	1.6382674422092
129	122	121	3.0328161507703
129	123	122	1.9492593956997
129	124	123	0.973
129	125	124	5.5191811701623
129	126	125	1.0682704262157
129	127	126	0.973
129	128	127	2.0057080144503
129	129	128	1.1531588391312
129	130	129	0.973
129	131	130	0.973
129	132	131	1.5905884973248
129	133	132	2.5355029147789
129	134	133	0.973
129	135	134	2.0951161377821
129	136	135	4.1869360971925
129	137	136	0.973
129	138	137	8.5683746562817
128	120	119	0.69457856377121
128	121	120	-0.12745765657164
128	122	121	0.26155045954511
128	123	122	-0.043875082256273
128	124	123	-0.52689743409864
128	125	124	0.93112634397112
128	126	125	-0.29507052830886
128	127	126	-0.85638536489569
128	128	127	-0.0058234365656968
128	129	128	-0.2579867176836
128	130	129	-1.4809908853967
128	131	130	-1.3054379139465
128	132	131	-0.059273303355836
[...]
301	312	311	69.255480878128
301	313	312	69.242474395897
301	314	313	69.229595157208
301	315	314	69.216549802294
300	290	289	48.407796666299
300	291	290	48.407796666299
300	292	291	58.344612886785
300	293	292	68.025738316967
300	294	293	77.231857816109
300	295	294	86.948229887469
300	296	295	96.607885604782
300	297	296	106.60478223253
300	298	297	116.18288818038
300	299	298	122.95710884095
300	300	299	125.65335066527
300	301	300	130.52100012176
300	302	301	136.96230214311
300	303	302	146.41523156481
300	304	303	156.58267606664
300	305	304	167.16981207304
300	306	305	177.79306115914
300	307	306	188.0342564729
300	308	307	198.13181078237
300	309	308	208.98892142445
300	310	309	219.86646260863
300	311	310	230.65775839415
300	312	311	241.29588850469
300	313	312	251.93302322232
300	314	313	262.46609393002
300	315	314	273.13502002409
314	300	299	2.5911318946876
314	301	300	0.973
314	302	301	3.7267821218453
314	303	302	1.6792230481708
314	304	303	2.0854039841345
314	305	304	0.973
314	306	305	2.8578177509704
314	307	306	1.2232137313979
314	308	307	4.0589167876623
314	309	308	0.973
314	310	309	1.6299508656006
314	311	310	1.9953079528524
314	312	311	1.855576937745
314	313	312	0.973
314	314	313	3.0129189299278
314	315	314	3.444527225019
314	316	315	0.973
314	317	316	4.6515502819216
314	318	317	1.9180764472321
313	300	299	0.201990812039
313	301	300	-0.86590075723361
313	302	301	0.58208805797622
313	303	302	-0.077592412009835
313	304	303	0.052623354643584
313	305	304	-0.38907409759704
313	306	305	0.30711791163776
313	307	306	-0.22264066627249
313	308	307	0.66204021405429
313	309	308	-0.63067955011502
313	310	309	-0.086473632580601
313	311	310	0.034086580993607
313	312	311	-0.01197488727048
313	313	312	-0.28450265643187
313	314	313	0.36782620430458
313	315	314	0.47746084956452
313	316	315	-0.91369769482408
313	317	316	0.86611969766673
313	318	317	-0.0066204703645791
312	299	298	12.924338615867
312	300	299	13.126329427906
312	301	300	12.260428670673
312	302	301	12.842516728649
312	303	302	12.764924316639
312	304	303	12.817547671283
312	305	304	12.428473573686
312	306	305	12.735591485323
312	307	306	12.512950819051
312	308	307	13.174991033105
312	309	308	12.54431148299
312	310	309	12.45783785041
312	311	310	12.491924431403
312	312	311	12.479949544133
312	313	312	12.195446887701
312	314	313	12.563273092006
312	315	314	13.04073394157
312	316	315	12.127036246746
312	317	316	12.993155944413
312	318	317	12.986535474048
311	298	297	68.133230370666
311	299	298	68.133230370666
311	300	299	68.090733043611
311	301	300	68.047571537919
311	302	301	68.007257254725
311	303	302	67.965028971341
311	304	303	67.923055824425
311	305	304	67.880909643362
311	306	305	67.8400428012
311	307	306	68.527137678966
311	308	307	69.373955857376
311	309	308	69.35784622905
311	310	309	69.342507759741
311	311	310	69.327275025463
311	312	311	69.312000612056
311	313	312	69.296740840859
311	314	313	69.281828943299
311	315	314	69.266467288815
311	316	315	69.25052182241
311	317	316	69.235693573484
311	318	317	69.219806282743
310	298	297	30.099491829414
310	299	298	30.099491829414
310	300	299	43.022542647492
310	301	300	56.147564150983
310	302	301	68.406771176711
310	303	302	81.248008260409
310	304	303	94.011660663505
310	305	304	106.82793117779
310	306	305	119.25516636232
310	307	306	131.94584002897
310	308	307	144.40310130908
310	309	308	157.57809234218
310	310	309	170.12240382517
310	311	310	182.58024167558
310	312	311	195.07216610699
310	313	312	207.55211565112
310	314	313	219.74756253882
310	315	314	232.31083563083
310	316	315	245.3515695724
310	317	316	257.47860581914
310	318	317	270.47176176355
vector 330 RSUExampleScenario.node[66].veinsmobility posx ETV
vector 331 RSUExampleScenario.node[66].veinsmobility posy ETV
vector 332 RSUExampleScenario.node[67].veinsmobility posx ETV
vector 333 RSUExampleScenario.node[67].veinsmobility posy ETV
vector 334 RSUExampleScenario.node[66].veinsmobility speed ETV
vector 335 RSUExampleScenario.node[67].veinsmobility speed ETV
vector 336 RSUExampleScenario.node[66].veinsmobility acceleration ETV
vector 337 RSUExampleScenario.node[66].veinsmobility co2emission ETV
vector 338 RSUExampleScenario.node[67].veinsmobility acceleration ETV
vector 339 RSUExampleScenario.node[67].veinsmobility co2emission ETV
324	307	306	3.3491575639227
324	308	307	3.2668365854572
324	309	308	3.7393052334698
324	310	309	0.973
324	311	310	5.1738639731769
324	312	311	2.1705577534842
324	313	312	0.973
324	314	313	4.9065914572276
324	315	314	2.4058460443172
324	316	315	0.973
324	317	316	2.1309893859108
324	318	317	3.2131030731661
324	319	318	2.2268957619565
324	320	319	1.2939139312928
324	321	320	2.2795490757089
323	307	306	0.29698201019783
323	308	307	0.26266506472603
323	309	308	0.36563021517359
323	310	309	-0.90079886433668
323	311	310	0.74221199371386
323	312	311	-0.027521838224494
323	313	312	-0.99235460215714
323	314	313	0.69741431546863
323	315	314	0.04137508876156
323	316	315	-0.63926732288674
323	317	316	-0.011249229009263
323	318	317	0.27019298831001
323	319	318	0.0061865618685264
323	320	319	-0.23968875394203
323	321	320	0.027120796218513
320	306	305	15.406219633581
320	307	306	15.703201643779
320	308	307	15.965866708505
320	309	308	16.331496923678
320	310	309	15.430698059341
320	311	310	16.172910053055
320	312	311	16.145388214831
320	313	312	15.153033612674
320	314	313	15.850447928142
320	315	314	15.891823016904
320	316	315	15.252555694017
320	317	316	15.241306465008
320	318	317	15.511499453318
320	319	318	15.517686015186
320	320	319	15.277997261244
320	321	320	15.305118057463
318	305	304	68.133230370666
318	306	305	68.133230370666
318	307	306	68.082572215234
318	308	307	68.03093753466
318	309	308	67.97843916864
318	310	309	67.924738551015
318	311	310	67.873999906539
318	312	311	67.820820748334
318	313	312	69.377938722759
318	314	313	69.359410456675
318	315	314	69.340029432104
318	316	315	69.320597816432
318	317	316	69.301947860418
318	318	317	69.283311659319
318	319	318	69.26434508163
318	320	319	69.245370939366
318	321	320	69.226689874852
317	305	304	30.099491829414
317	306	305	30.099491829414
317	307	306	45.504176367376
317	308	307	61.205813323864
317	309	308	77.170089172792
317	310	309	93.499958805027
317	311	310	108.92911932969
317	312	311	125.1004178931
317	313	312	141.14578123677
317	314	313	156.29881484944
317	315	314	172.14926277759
317	316	315	188.04108579449
317	317	316	203.29364148851
317	318	317	218.53494795351
317	319	318	234.04644740683
317	320	319	249.56413342202
317	321	320	264.84213068326
322	307	306	0.973
322	308	307	5.2566934862897
322	309	308	0.973
322	310	309	4.5654163999591
322	311	310	0.973
322	312	311	0.973
322	313	312	5.8312866427469
322	314	313	5.3856471390624
322	315	314	7.767357748862
322	316	315	5.7104050213917
322	317	316	1.8695797035566
322	318	317	3.2249369416921
322	319	318	1.8145489271107
322	320	319	1.1087379659295
322	321	320	0.973
322	322	321	2.7342100274915
322	323	322	1.6187899572208
322	324	323	1.7403336837978
322	325	324	2.3078714280715
321	307	306	-0.3675717207836
321	308	307	1.0033085721312
321	309	308	-0.6754270322388
321	310	309	0.78163608300965
321	311	310	-2.6240071268735
321	312	311	-4.5
321	313	312	2.061635002424
321	314	313	1.5215156259015
321	315	314	2.0261026233668
321	316	315	1.1704325626587
321	317	316	-0.029420467116871
321	318	317	0.3732150797965
321	319	318	-0.055108000454494
321	320	319	-0.26830055920873
321	321	320	-0.53167333903257
321	322	321	0.25273699567188
321	323	322	-0.10061741489917
321	324	323	-0.0600262532942
321	325	324	0.11847324760165
319	306	305	12.875720849517
319	307	306	12.508149128734
319	308	307	13.511457700865
319	309	308	12.836030668626
319	310	309	13.617666751636
319	311	310	10.993659624762
319	312	311	6.4936596247624
319	313	312	8.5552946271864
319	314	313	10.076810253088
319	315	314	12.102912876455
319	316	315	13.273345439113
319	317	316	13.243924971997
319	318	317	13.617140051793
319	319	318	13.562032051339
319	320	319	13.29373149213
319	321	320	12.762058153097
319	322	321	13.014795148769
319	323	322	12.91417773387
319	324	323	12.854151480576
319	325	324	12.972624728177
316	305	304	28.571856717077
316	306	305	28.571856717077
316	307	306	33.928804711539
316	308	307	39.132824367814
316	309	308	44.75427089332
316	310	309	50.09470577466
316	311	310	55.760340611498
316	312	311	60.334256399745
316	313	312	63.035945672924
316	314	313	66.866392367308
316	315	314	69.378118871943
316	316	315	69.3633201197
316	317	316	69.34709022921
316	318	317	69.33089631239
316	319	318	69.314246049437
316	320	319	69.297663169407
316	321	320	69.281408352013
316	322	321	69.265803634483
316	323	322	69.249889884556
316	324	323	69.234099163871
316	325	324	69.218381839868
315	305	304	48.407796666299
315	306	305	48.407796666299
315	307	306	60.116615339257
315	308	307	71.491174619807
315	309	308	83.778114518221
315	310	309	95.450840056155
315	311	310	107.83436348037
315	312	311	117.8316885702
315	313	312	123.73684013095
315	314	313	131.38338693083
315	315	314	140.99844922918
315	316	315	153.10136210563
315	317	316	166.37470754475
315	318	317	179.61863251674
315	319	318	193.23577256854
315	320	319	206.79780461987
315	321	320	220.091536112
315	322	321	232.8535942651
315	323	322	245.86838941387
315	324	323	258.78256714774
315	325	324	271.63671862832
vector 340 RSUExampleScenario.node[68].veinsmobility posx ETV
vector 341 RSUExampleScenario.node[68].veinsmobility posy ETV
vector 342 RSUExampleScenario.node[68].veinsmobility speed ETV
vector 343 RSUExampleScenario.node[68].veinsmobility acceleration ETV
vector 344 RSUExampleScenario.node[68].veinsmobility co2emission ETV
329	314	313	3.4323231993917
329	315	314	0.973
329	316	315	5.1484313462915
329	317	316	0.973
329	318	317	3.7396577783714
329	319	318	0.973
329	320	319	5.4508436131578
329	321	320	1.5680274805855
329	322	321	0.973
329	323	322	2.7588201118622
329	324	323	3.2341182767188
329	325	324	0.973
329	326	325	2.5032799185799
329	327	326	0.973
329	328	327	1.5887263550998
329	329	328	1.6624942555192
329	330	329	3.0870245098735
328	314	313	0.41357604793738
328	315	314	-0.74864324135706
328	316	315	0.9073990490986
328	317	316	-0.99790080790408
328	318	317	0.52591091424692
328	319	318	-0.52528053354472
328	320	319	0.99619270537514
328	321	320	-0.13971555130556
328	322	321	-0.49241837693844
328	323	322	0.22533781027887
328	324	323	0.34923721414525
328	325	324	-0.81492086451035
328	326	325	0.16089277612045
328	327	326	-0.32823423242662
328	328	327	-0.11206342121586
328	329	328	-0.086470972024836
328	330	329	0.35104897876736
327	313	312	13.57687848058
327	314	313	13.990454528518
327	315	314	13.241811287161
327	316	315	14.149210336259
327	317	316	13.151309528355
327	318	317	13.677220442602
327	319	318	13.151939909058
327	320	319	14.148132614433
327	321	320	14.008417063127
327	322	321	13.515998686189
327	323	322	13.741336496468
327	324	323	14.090573710613
327	325	324	13.275652846102
327	326	325	13.436545622223
327	327	326	13.108311389796
327	328	327	12.99624796858
327	329	328	12.909776996556
327	330	329	13.260825975323
326	312	311	68.133230370666
326	313	312	68.133230370666
326	314	313	68.088587386423
326	315	314	68.042584496881
326	316	315	67.999043268057
326	317	316	67.952518363604
326	318	317	67.90927471928
326	319	318	67.864301794349
326	320	319	67.821056077231
326	321	320	69.354590336921
326	322	321	69.363339668812
326	323	322	69.346813075758
326	324	323	69.330010952469
326	325	324	69.312781801814
326	326	325	69.296549089958
326	327	326	69.280119647583
326	328	327	69.264091551325
326	329	328	69.248200479833
326	330	329	69.232415140118
325	312	311	30.099491829414
325	313	312	30.099491829414
325	314	313	43.67501749229
325	315	314	57.664077993852
325	316	315	70.904569849837
325	317	316	85.052370340507
325	318	317	98.202369455397
325	319	318	111.87822708209
325	320	319	125.02885651487
325	321	320	139.07779631786
325	322	321	153.08537419009
325	323	322	166.60137287628
325	324	323	180.34270937275
325	325	324	194.43328308336
325	326	325	207.70893592946
325	327	326	221.14548155169
325	328	327	234.25379294148
325	329	328	247.25004091006
325	330	329	260.15981790662
vector 345 RSUExampleScenario.node[69].veinsmobility posx ETV
vector 346 RSUExampleScenario.node[69].veinsmobility posy ETV
vector 347 RSUExampleScenario.node[70].veinsmobility posx ETV
vector 348 RSUExampleScenario.node[70].veinsmobility posy ETV
vector 349 RSUExampleScenario.node[69].veinsmobility speed ETV
vector 350 RSUExampleScenario.node[70].veinsmobility speed ETV
vector 351 RSUExampleScenario.node[69].veinsmobility acceleration ETV
vector 352 RSUExampleScenario.node[69].veinsmobility co2emission ETV
vector 353 RSUExampleScenario.node[70].veinsmobility acceleration ETV
vector 354 RSUExampleScenario.node[70].veinsmobility co2emission ETV
330	319	318	48.407796666299
330	320	319	48.407796666299
330	321	320	58.527365592995
330	322	321	68.905642165529
330	323	322	79.037909370239
330	324	323	89.226723990252
330	325	324	99.336015259894
330	326	325	108.90851652776
330	327	326	118.41963104278
330	328	327	123.83857202871
330	329	328	130.45671551974
330	330	329	139.81131386297
330	331	330	150.24550392369
330	332	331	160.63662254709
330	333	332	171.92141397199
330	334	333	182.37466998515
330	335	334	193.18181742224
330	336	335	203.92392156273
331	319	318	28.571856717077
331	320	319	28.571856717077
331	321	320	33.201700767176
331	322	321	37.949907176727
331	323	322	42.585560866282
331	324	323	47.247085787723
331	325	324	51.872227666247
331	326	325	56.251780625531
331	327	326	60.603248288448
331	328	327	63.082489436298
331	329	328	66.369650012149
331	330	329	69.379570433426
331	331	330	69.366812100358
331	332	331	69.35410643259
331	333	332	69.340308032641
331	334	333	69.327526386813
331	335	334	69.314312022716
331	336	335	69.301177189856
332	319	318	30.099491829414
332	320	319	30.099491829414
332	321	320	43.400319021197
332	322	321	56.251802758801
332	323	322	68.962529249885
332	324	323	82.600818359405
332	325	324	96.12379996144
332	326	325	109.19422705433
332	327	326	122.52276825114
332	328	327	135.51005506288
332	329	328	148.5169124157
332	330	329	161.37086825466
332	331	330	174.98161980692
332	332	331	187.96058632878
332	333	332	200.69292456728
332	334	333	214.20610116306
332	335	334	227.74011810645
332	336	335	241.68038539095
333	319	318	68.133230370666
333	320	319	68.133230370666
333	321	320	68.089490729676
333	322	321	68.04722875027
333	323	322	68.005429649701
333	324	323	67.960580268474
333	325	324	67.916110074865
333	326	325	67.873128102362
333	327	326	67.829297324137
333	328	327	69.086636550568
333	329	328	69.368925723559
333	330	329	69.353208638776
333	331	330	69.336566187316
333	332	331	69.320696246592
333	333	332	69.30512786888
333	334	333	69.288604726518
333	335	334	69.272056101765
333	336	335	69.255010737244
334	320	319	11.12808629606
334	321	320	11.412576774774
334	322	321	11.142050085879
334	323	322	11.204233022906
334	324	323	11.116784366556
334	325	324	10.526497813254
334	326	325	10.458993249766
334	327	326	5.9589932497659
334	328	327	7.3919351117521
334	329	328	9.9411638922592
334	330	329	10.43419006072
334	331	330	10.391118623396
334	332	331	11.284791424904
334	333	332	10.453256013161
334	334	333	10.807147437088
334	335	334	10.742104140493
334	336	335	11.321530012168
335	320	319	13.302152635449
335	321	320	12.852764403646
335	322	321	12.711993130495
335	323	322	13.639648181678
335	324	323	13.524329183659
335	325	324	13.071729576903
335	326	325	13.329869402213
335	327	326	13.075483341411
335	328	327	13.018942560245
335	329	328	12.853955838958
335	330	329	13.610751552264
335	331	330	12.978966521857
335	332	331	12.732338238497
335	333	332	13.513176595782
335	334	333	13.534016943386
335	335	334	13.940267284507
335	336	335	13.867614392227
336	321	320	0.284490478714
336	322	321	-0.27052668889519
336	323	322	0.062182937026956
336	324	323	-0.087448656349444
336	325	324	-0.59028655330185
336	326	325	-0.067504563488422
336	327	326	-4.5
336	328	327	1.4329418619862
336	329	328	2.5492287805071
336	330	329	0.49302616846131
336	331	330	-0.043071437324397
336	332	331	0.89367280150764
336	333	332	-0.83153541174252
336	334	333	0.35389142392669
336	335	334	-0.065043296595103
336	336	335	0.5794258716749
337	321	320	2.5803309851996
337	322	321	0.973
337	323	322	1.94833270874
337	324	323	1.5389002507569
337	325	324	0.973
337	326	325	1.5500807135253
337	327	326	0.973
337	328	327	4.0566222259522
337	329	328	7.7878142033495
337	330	329	2.9580704562886
337	331	330	1.6070531861049
337	332	331	4.2175976678252
337	333	332	0.973
337	334	333	2.6696569590633
337	335	334	1.5743212561872
337	336	335	3.371164126581
338	321	320	-0.44938823180273
338	322	321	-0.14077127315104
338	323	322	0.92765505118295
338	324	323	-0.11531899801921
338	325	324	-0.45259960675612
338	326	325	0.25813982530963
338	327	326	-0.25438606080134
338	328	327	-0.056540781166404
338	329	328	-0.16498672128655
338	330	329	0.75679571330547
338	331	330	-0.6317850304069
338	332	331	-0.24662828336004
338	333	332	0.78083835728467
338	334	333	0.020840347604826
338	335	334	0.40625034112018
338	336	335	-0.072652892279439
339	321	320	0.973
339	322	321	1.481724954533
339	323	322	5.0517360369174
339	324	323	1.6150648509158
339	325	324	0.973
339	326	325	2.8011082490803
339	327	326	1.1456544391083
339	328	327	1.7644782924035
339	329	328	1.4151712276407
339	330	329	4.4819437960829
339	331	330	0.973
339	332	331	1.1581072184208
339	333	332	4.5327656953193
339	334	333	2.0598650519794
339	335	334	3.3975757958901
339	336	335	1.7825252519266
340	326	325	30.099491829414
340	327	326	30.099491829414
340	328	327	43.217827474426
340	329	328	56.157491500869
340	330	329	69.133536150999
340	331	330	83.025045569207
340	332	331	96.577426090388
340	333	332	109.43797126204
340	334	333	122.42591622399
340	335	334	136.04378793666
340	336	335	149.29691886177
341	326	325	68.133230370666
341	327	326	68.133230370666
341	328	327	68.090090851355
341	329	328	68.047538891925
341	330	329	68.004867295169
341	331	330	67.959185201417
341	332	331	67.914618329748
341	333	332	67.872326551904
341	334	333	67.829615821087
341	335	334	69.152883408531
341	336	335	69.367971976122
342	327	326	13.119642903173
342	328	327	12.94095347976
342	329	328	12.977337728819
342	330	329	13.892893724079
342	331	330	13.553731032443
342	332	331	12.861826740677
342	333	332	12.98923922652
342	334	333	13.710662247083
342	335	334	13.260631779215
342	336	335	12.842352130503
343	328	327	-0.17868942341302
343	329	328	0.036384249059484
343	330	329	0.91555599526036
343	331	330	-0.33916269163601
343	332	331	-0.6919042917667
343	333	332	0.12741248584353
343	334	333	0.72142302056309
343	335	334	-0.45003046786878
343	336	335	-0.41827964871191
344	328	327	1.3771838537047
344	329	328	2.0517167442312
344	330	329	5.0933603893633
344	331	330	0.973
344	332	331	0.973
344	333	332	2.3379066175698
344	334	333	4.3932722505247
344	335	334	0.973
344	336	335	0.973
345	334	333	48.407796666299
345	335	334	48.407796666299
345	336	335	60.884570379878
346	334	333	28.571856717077
346	335	334	28.571856717077
346	336	335	34.280154863044
347	334	333	30.099491829414
347	335	334	30.099491829414
347	336	335	44.046152757244
348	334	333	68.133230370666
348	335	334	68.133230370666
348	336	335	68.08736691171
349	335	334	13.720210375251
349	336	335	13.257061959394
350	335	334	13.948050729617
350	336	335	13.5684122546
351	336	335	-0.463148415857
352	336	335	0.973
353	336	335	-0.37963847501669
354	336	335	0.973

