version 2
run General-0-20201104-22:24:47-12184
attr configname General
attr datetime 20201104-22:24:47
attr experiment General
attr inifile omnetpp.ini
attr iterationvars ""
attr iterationvarsf ""
attr measurement ""
attr network RSUExampleScenario
attr processid 12184
attr repetition 0
attr replication #0
attr resultdir results
attr runnumber 0
attr seedset 0
param *.playgroundSizeX 2500m
param *.playgroundSizeY 2500m
param *.playgroundSizeZ 50m
param *.annotations.draw true
param *.manager.updateInterval 1s
param *.manager.host "\"localhost\""
param *.manager.port 9999
param *.manager.autoShutdown true
param *.manager.launchConfig "xmldoc(\"erlangen.launchd.xml\")"
param *.rsu[0].mobility.x 2000
param *.rsu[0].mobility.y 2000
param *.rsu[0].mobility.z 3
param *.rsu[*].applType "\"TraCIDemoRSU11p\""
param *.rsu[*].appl.headerLength "80 bit"
param *.rsu[*].appl.sendBeacons false
param *.rsu[*].appl.dataOnSch false
param *.rsu[*].appl.beaconInterval 1s
param *.rsu[*].appl.beaconUserPriority 7
param *.rsu[*].appl.dataUserPriority 5
param *.rsu[*].nic.phy80211p.antennaOffsetZ "0 m"
param *.connectionManager.sendDirect true
param *.connectionManager.maxInterfDist 60m
param *.connectionManager.drawMaxIntfDist false
param *.**.nic.mac1609_4.useServiceChannel false
param *.**.nic.mac1609_4.txPower 20mW
param *.**.nic.mac1609_4.bitrate 6Mbps
param *.**.nic.phy80211p.minPowerLevel -110dBm
param *.**.nic.phy80211p.useNoiseFloor true
param *.**.nic.phy80211p.noiseFloor -98dBm
param *.**.nic.phy80211p.decider "xmldoc(\"config.xml\")"
param *.**.nic.phy80211p.analogueModels "xmldoc(\"config.xml\")"
param *.**.nic.phy80211p.usePropagationDelay true
param *.**.nic.phy80211p.antenna "xmldoc(\"antenna.xml\", \"/root/Antenna[@id='monopole']\")"
param *.node[*].nic.phy80211p.antennaOffsetY "0 m"
param *.node[*].nic.phy80211p.antennaOffsetZ "1.895 m"
param *.node[*].applType "\"TraCIDemo11p\""
param *.node[*].appl.headerLength "80 bit"
param *.node[*].appl.sendBeacons false
param *.node[*].appl.dataOnSch false
param *.node[*].appl.beaconInterval 2s
param *.node[*].veinsmobility.x 0
param *.node[*].veinsmobility.y 0
param *.node[*].veinsmobility.z 0
param *.node[*].veinsmobility.setHostSpeed false
param *.node[*0].veinsmobility.accidentCount 0
param *.node[*0].veinsmobility.accidentStart 73s
param *.node[*0].veinsmobility.accidentDuration 50s

vector 0 RSUExampleScenario.node[0].veinsmobility posx ETV
vector 1 RSUExampleScenario.node[0].veinsmobility posy ETV
vector 2 RSUExampleScenario.node[1].veinsmobility posx ETV
vector 3 RSUExampleScenario.node[1].veinsmobility posy ETV
vector 4 RSUExampleScenario.node[0].veinsmobility speed ETV
vector 5 RSUExampleScenario.node[1].veinsmobility speed ETV
vector 6 RSUExampleScenario.node[0].veinsmobility acceleration ETV
vector 7 RSUExampleScenario.node[0].veinsmobility co2emission ETV
vector 8 RSUExampleScenario.node[1].veinsmobility acceleration ETV
vector 9 RSUExampleScenario.node[1].veinsmobility co2emission ETV
vector 10 RSUExampleScenario.node[2].veinsmobility posx ETV
vector 11 RSUExampleScenario.node[2].veinsmobility posy ETV
vector 12 RSUExampleScenario.node[3].veinsmobility posx ETV
vector 13 RSUExampleScenario.node[3].veinsmobility posy ETV
vector 14 RSUExampleScenario.node[2].veinsmobility speed ETV
vector 15 RSUExampleScenario.node[3].veinsmobility speed ETV
vector 16 RSUExampleScenario.node[2].veinsmobility acceleration ETV
vector 17 RSUExampleScenario.node[2].veinsmobility co2emission ETV
vector 18 RSUExampleScenario.node[3].veinsmobility acceleration ETV
vector 19 RSUExampleScenario.node[3].veinsmobility co2emission ETV
9	4	3	3.1980329120646
9	5	4	2.8185583610952
9	6	5	0.973
9	7	6	3.6800343480601
9	8	7	0.973
9	9	8	4.2853427635155
9	10	9	1.530993973745
9	11	10	0.973
9	12	11	2.2564405918424
9	13	12	3.5571068655941
9	14	13	3.7563038476037
9	15	14	0.973
9	16	15	3.1030925649703
9	17	16	2.0770191970582
9	18	17	4.2229662907036
9	19	18	0.973
9	20	19	6.5200095308628
8	4	3	0.32618666749913
8	5	4	0.20690260962583
8	6	5	-1.1772990263766
8	7	6	0.49644190394319
8	8	7	-0.5174885753775
8	9	8	0.66613068294246
8	10	9	-0.1475384418387
8	11	10	-0.54368123686872
8	12	11	0.086330898758025
8	13	12	0.45940596188884
8	14	13	0.48689800673164
8	15	14	-1.0399857374839
8	16	15	0.33522886713035
8	17	16	0.022213321202434
8	18	17	0.62613112088293
8	19	18	-0.98824044039939
8	20	19	1.2610574570717
5	3	2	13.99521132697
5	4	3	14.321397994469
5	5	4	14.528300604095
5	6	5	13.351001577719
5	7	6	13.847443481662
5	8	7	13.329954906284
5	9	8	13.996085589227
5	10	9	13.848547147388
5	11	10	13.304865910519
5	12	11	13.391196809277
5	13	12	13.850602771166
5	14	13	14.337500777898
5	15	14	13.297515040414
5	16	15	13.632743907544
5	17	16	13.654957228747
5	18	17	14.28108834963
5	19	18	13.29284790923
5	20	19	14.553905366302
3	2	1	68.133230370666
3	3	2	68.133230370666
3	4	3	68.087211839997
3	5	4	68.040120754523
3	6	5	67.992349339623
3	7	6	67.948449075368
3	8	7	67.902916429404
3	9	8	67.859085370027
3	10	9	67.959544728437
3	11	10	69.377862715352
3	12	11	69.361594283426
3	13	12	69.345220290995
3	14	13	69.328284563132
3	15	14	69.310753484129
3	16	15	69.294494040427
3	17	16	69.277824697969
3	18	17	69.261128194326
3	19	18	69.243666093226
3	20	19	69.227412356227
2	2	1	30.099491829414
2	3	2	30.099491829414
2	4	3	44.093308655455
2	5	4	58.413279647334
2	6	5	72.940132632796
2	7	6	86.289803899477
2	8	7	100.13586760399
2	9	8	113.46449429635
2	10	9	127.45479965392
2	11	10	141.20794262782
2	12	11	154.51280853833
2	13	12	167.90400534761
2	14	13	181.75460811878
2	15	14	196.09210889668
2	16	15	209.38962393709
2	17	16	223.02236784463
2	18	17	236.67732507338
2	19	18	250.95841342301
2	20	19	264.25126133224
vector 20 RSUExampleScenario.node[4].veinsmobility posx ETV
vector 21 RSUExampleScenario.node[4].veinsmobility posy ETV
vector 22 RSUExampleScenario.node[5].veinsmobility posx ETV
vector 23 RSUExampleScenario.node[5].veinsmobility posy ETV
vector 24 RSUExampleScenario.node[4].veinsmobility speed ETV
vector 25 RSUExampleScenario.node[5].veinsmobility speed ETV
vector 26 RSUExampleScenario.node[4].veinsmobility acceleration ETV
vector 27 RSUExampleScenario.node[4].veinsmobility co2emission ETV
vector 28 RSUExampleScenario.node[5].veinsmobility acceleration ETV
vector 29 RSUExampleScenario.node[5].veinsmobility co2emission ETV
7	4	3	4.5101431359823
7	5	4	0.973
7	6	5	1.4867496026317
7	7	6	0.973
7	8	7	0.973
7	9	8	0.973
7	10	9	0.973
7	11	10	1.7681658080312
7	12	11	3.1406102418837
7	13	12	2.9433938667476
7	14	13	4.1425267588442
7	15	14	4.4869657434066
7	16	15	6.0354467403031
7	17	16	7.0205318636246
7	18	17	10.345151133434
7	19	18	5.793529734939
7	20	19	0.973
7	21	20	1.1538940593551
7	22	21	4.3312114558166
7	23	22	0.973
7	24	23	4.9521044066858
6	4	3	0.62409493126906
6	5	4	-0.82864982441533
6	6	5	-0.17134158615954
6	7	6	-1.5626100045206
6	8	7	-4.0904629030265
6	9	8	-4.5
6	10	9	-4.0348503606057
6	11	10	1.4391689548036
6	12	11	2.0578714020317
6	13	12	1.3036597494269
6	14	13	1.6635781639256
6	15	14	1.4876927716658
6	16	15	1.8082537224516
6	17	16	1.823176932591
6	18	17	2.4160965752788
6	19	18	0.98850104624261
6	20	19	-0.61608860646374
6	21	20	-0.26618577302434
6	22	21	0.60890309580136
6	23	22	-0.44796881531365
6	24	23	0.75620721047744
4	3	2	14.789478198948
4	4	3	15.413573130217
4	5	4	14.584923305801
4	6	5	14.413581719642
4	7	6	12.850971715121
4	8	7	8.7605088120948
4	9	8	4.2605088120948
4	10	9	0.22565845148913
4	11	10	1.6648274062927
4	12	11	3.7226988083245
4	13	12	5.0263585577514
4	14	13	6.6899367216769
4	15	14	8.1776294933427
4	16	15	9.9858832157943
4	17	16	11.809060148385
4	18	17	14.225156723664
4	19	18	15.213657769907
4	20	19	14.597569163443
4	21	20	14.331383390419
4	22	21	14.94028648622
4	23	22	14.492317670906
4	24	23	15.248524881384
1	2	1	28.571856717077
1	3	2	28.571856717077
1	4	3	34.725024101097
1	5	4	41.137846391392
1	6	5	47.205908643248
1	7	6	53.202684170495
1	8	7	58.549335279259
1	9	8	62.194147920035
1	10	9	63.966734045742
1	11	10	64.06061932046
1	12	11	64.811851117041
1	13	12	66.533380833831
1	14	13	68.616731628311
1	15	14	69.376976125161
1	16	15	69.366976985776
1	17	16	69.354766816774
1	18	17	69.340327370902
1	19	18	69.322933659808
1	20	19	69.304331265958
1	21	20	69.286482190152
1	22	21	69.268958591142
1	23	22	69.250690460122
1	24	23	69.232970079843
0	2	1	48.407796666299
0	3	2	48.407796666299
0	4	3	61.856932487353
0	5	4	75.873602698936
0	6	5	89.136722049106
0	7	6	102.24402817632
0	8	7	113.93034068202
0	9	8	121.89690118473
0	10	9	125.77128815835
0	11	10	125.97649561208
0	12	11	127.46189863091
0	13	12	130.76215488884
0	14	13	135.32771940807
0	15	14	141.93302563945
0	16	15	150.1106551328
0	17	16	160.09653834859
0	18	17	171.90559849698
0	19	18	186.13075522064
0	20	19	201.34441299055
0	21	20	215.94198215399
0	22	21	230.27336554441
0	23	22	245.21365203063
0	24	23	259.70596970153
19	14	13	2.2675106399726
19	15	14	2.4350641070721
19	16	15	1.963760080543
19	17	16	2.7949696273146
19	18	17	1.8044724083762
19	19	18	0.973
19	20	19	2.4148516478309
19	21	20	1.4516925004328
19	22	21	2.3090579304098
19	23	22	4.8212387579897
19	24	23	0.973
19	25	24	0.973
19	26	25	5.593957066678
19	27	26	0.973
19	28	27	4.6455607116016
19	29	28	0.973
19	30	29	3.5502125799537
18	14	13	0.083695683046244
18	15	14	0.12978077486623
18	16	15	-0.01273789925035
18	17	16	0.22868058823515
18	18	17	-0.065288548683746
18	19	18	-0.64247826924548
18	20	19	0.13782349480316
18	21	20	-0.1590481731575
18	22	21	0.10689414509106
18	23	22	0.81614513453096
18	24	23	-0.73735654451884
18	25	24	-0.53435743602459
18	26	25	1.0654259583913
18	27	26	-0.56353920861147
18	28	27	0.76485220275354
18	29	28	-0.49086074382067
18	30	29	0.44513459699228
15	13	12	13.472378439715
15	14	13	13.556074122761
15	15	14	13.685854897627
15	16	15	13.673116998377
15	17	16	13.901797586612
15	18	17	13.836509037928
15	19	18	13.194030768683
15	20	19	13.331854263486
15	21	20	13.172806090328
15	22	21	13.279700235419
15	23	22	14.09584536995
15	24	23	13.358488825431
15	25	24	12.824131389407
15	26	25	13.889557347798
15	27	26	13.326018139187
15	28	27	14.09087034194
15	29	28	13.600009598119
15	30	29	14.045144195112
13	12	11	68.133230370666
13	13	12	68.133230370666
13	14	13	68.088930999551
13	15	14	68.04435642342
13	16	15	67.999355106996
13	17	16	67.954395674858
13	18	17	67.908684303758
13	19	18	67.863187612023
13	20	19	67.8239534793
13	21	20	69.325711406618
13	22	21	69.36489371648
13	23	22	69.348656055707
13	24	23	69.331420459167
13	25	24	69.315086460196
13	26	25	69.29940584305
13	27	26	69.28242248375
13	28	27	69.266128188083
13	29	28	69.248898674724
13	30	29	69.232269357914
12	12	11	30.099491829414
12	13	12	30.099491829414
12	14	13	43.570527863943
12	15	14	57.125251241973
12	16	15	70.809742463345
12	17	16	84.481497054687
12	18	17	98.381909448235
12	19	18	112.21703979853
12	20	19	125.4096316461
12	21	20	138.64340907455
12	22	21	151.81442220552
12	23	22	165.09412244093
12	24	23	179.18996781088
12	25	24	192.54845663632
12	26	25	205.37258802572
12	27	26	219.26214537352
12	28	27	232.58816351271
12	29	28	246.67903385465
12	30	29	260.27904345277
vector 30 RSUExampleScenario.node[6].veinsmobility posx ETV
vector 31 RSUExampleScenario.node[6].veinsmobility posy ETV
vector 32 RSUExampleScenario.node[7].veinsmobility posx ETV
vector 33 RSUExampleScenario.node[7].veinsmobility posy ETV
vector 34 RSUExampleScenario.node[6].veinsmobility speed ETV
vector 35 RSUExampleScenario.node[7].veinsmobility speed ETV
vector 36 RSUExampleScenario.node[6].veinsmobility acceleration ETV
vector 37 RSUExampleScenario.node[6].veinsmobility co2emission ETV
vector 38 RSUExampleScenario.node[7].veinsmobility acceleration ETV
vector 39 RSUExampleScenario.node[7].veinsmobility co2emission ETV
17	14	13	0.973
17	15	14	5.994593887011
17	16	15	1.5801851211129
17	17	16	2.3210303993897
17	18	17	0.973
17	19	18	0.973
17	20	19	0.973
17	21	20	3.2982614706788
17	22	21	2.9461366984762
17	23	22	6.1215608035259
17	24	23	4.7535218322014
17	25	24	6.4004013378291
17	26	25	8.3438989643606
17	27	26	3.5457288820621
17	28	27	2.8335758514236
17	29	28	3.5481982550385
17	30	29	0.973
17	31	30	1.2702800271421
17	32	31	5.6118657850696
17	33	32	1.9724965918227
17	34	33	0.973
16	14	13	-0.59700049634557
16	15	14	1.1408086051
16	16	15	-0.13888849741779
16	17	16	0.075752234992958
16	18	17	-4.5
16	19	18	-4.5
16	20	19	-4.3126489392024
16	21	20	2.4783830557484
16	22	21	1.3876754304394
16	23	22	2.5998513045954
16	24	23	1.4781087941956
16	25	24	1.8146284818649
16	26	25	2.0907039459562
16	27	26	0.49527452697735
16	28	27	0.25924912905321
16	29	28	0.44986702802125
16	30	29	-0.49067262406461
16	31	30	-0.2172921936959
16	32	31	1.029648572416
16	33	32	-0.026982307177967
16	34	33	-1.0744616155978
14	13	12	13.737913194458
14	14	13	13.140912698112
14	15	14	14.281721303212
14	16	15	14.142832805795
14	17	16	14.218585040788
14	18	17	9.7185850407875
14	19	18	5.2185850407875
14	20	19	0.90593610158518
14	21	20	3.3843191573336
14	22	21	4.771994587773
14	23	22	7.3718458923684
14	24	23	8.8499546865639
14	25	24	10.664583168429
14	26	25	12.755287114385
14	27	26	13.250561641362
14	28	27	13.509810770416
14	29	28	13.959677798437
14	30	29	13.469005174372
14	31	30	13.251712980676
14	32	31	14.281361553092
14	33	32	14.254379245914
14	34	33	13.179917630317
11	12	11	28.571856717077
11	13	12	28.571856717077
11	14	13	34.287520126936
11	15	14	39.754801279291
11	16	15	45.696716235887
11	17	16	51.580846586372
11	18	17	57.49649367973
11	19	18	61.53991425802
11	20	19	63.711108321242
11	21	20	64.088023341318
11	22	21	65.625602575513
11	23	22	67.801738209267
11	24	23	69.378822216185
11	25	24	69.368000995864
11	26	25	69.354960951231
11	27	26	69.339364512942
11	28	27	69.323162481181
11	29	28	69.306643454358
11	30	29	69.289574355766
11	31	30	69.2731052237
11	32	31	69.256901784148
11	33	32	69.23943934899
11	34	33	69.22200990626
10	12	11	48.407796666299
10	13	12	48.407796666299
10	14	13	60.900668826134
10	15	14	72.85064551308
10	16	15	85.838041483481
10	17	16	98.699136157743
10	18	17	111.62911778552
10	19	18	120.4669258842
10	20	19	125.2125604538
10	21	20	126.03639328357
10	22	21	129.05088076875
10	23	22	133.29334652237
10	24	23	140.423230863
10	25	24	149.27318554956
10	26	25	159.93776871799
10	27	26	172.69305583238
10	28	27	185.94361747374
10	29	28	199.45342824416
10	30	29	213.41310604259
10	31	30	226.88211121697
10	32	31	240.13382419764
10	33	32	254.41518575073
10	34	33	268.66956499665
29	24	23	4.7352114911186
29	25	24	1.3388070581626
29	26	25	1.2964923080923
29	27	26	3.3002275387164
29	28	27	0.973
29	29	28	2.2283449169806
29	30	29	1.0950128560815
29	31	30	4.1805019861294
29	32	31	0.973
29	33	32	2.9150207863723
29	34	33	3.8468362033688
29	35	34	4.1117964726351
29	36	35	0.973
29	37	36	4.3879005070157
29	38	37	0.973
28	24	23	0.6491165544372
28	25	24	-0.23361537344754
28	26	25	-0.24117760881782
28	27	26	0.28385322990361
28	28	27	-0.4756835904438
28	29	28	0.015085066668689
28	30	29	-0.29007148416713
28	31	30	0.5305548241362
28	32	31	-0.66667985585518
28	33	32	0.21147271951195
28	34	33	0.44194381879643
28	35	34	0.48282079794444
28	36	35	-0.68353238238488
28	37	36	0.56260170624591
28	38	37	-0.73503037611954
25	23	22	15.249108342969
25	24	23	15.898224897406
25	25	24	15.664609523958
25	26	25	15.423431915141
25	27	26	15.707285145044
25	28	27	15.2316015546
25	29	28	15.246686621269
25	30	29	14.956615137102
25	31	30	15.487169961238
25	32	31	14.820490105383
25	33	32	15.031962824895
25	34	33	15.473906643691
25	35	34	15.956727441636
25	36	35	15.273195059251
25	37	36	15.835796765497
25	38	37	15.100766389377
23	22	21	68.133230370666
23	23	22	68.133230370666
23	24	23	68.083088822706
23	25	24	68.03081287396
23	26	25	67.979305090552
23	27	26	67.92859033834
23	28	27	67.876942230549
23	29	28	67.826858247757
23	30	29	69.310409727635
23	31	30	69.362994624246
23	32	31	69.344057795274
23	33	32	69.325936144442
23	34	33	69.307555916818
23	35	34	69.288635305475
23	36	35	69.26912432837
23	37	36	69.250449135716
23	38	37	69.231086025752
22	22	21	30.099491829414
22	23	22	30.099491829414
22	24	23	45.347080731536
22	25	24	61.243721509283
22	26	25	76.90677019132
22	27	26	92.328665295787
22	28	27	108.03438534666
22	29	28	123.26446920481
22	30	29	138.41324631984
22	31	30	153.36756313749
22	32	31	168.85473309873
22	33	32	183.67522320411
22	34	33	198.70718602901
22	35	34	214.1810926727
22	36	35	230.13782011433
22	37	36	245.41101517358
22	38	37	261.24681193908
vector 40 RSUExampleScenario.node[8].veinsmobility posx ETV
vector 41 RSUExampleScenario.node[8].veinsmobility posy ETV
vector 42 RSUExampleScenario.node[9].veinsmobility posx ETV
vector 43 RSUExampleScenario.node[9].veinsmobility posy ETV
vector 44 RSUExampleScenario.node[8].veinsmobility speed ETV
vector 45 RSUExampleScenario.node[9].veinsmobility speed ETV
vector 46 RSUExampleScenario.node[8].veinsmobility acceleration ETV
vector 47 RSUExampleScenario.node[8].veinsmobility co2emission ETV
vector 48 RSUExampleScenario.node[9].veinsmobility acceleration ETV
vector 49 RSUExampleScenario.node[9].veinsmobility co2emission ETV
27	24	23	0.973
27	25	24	4.4161213055415
27	26	25	1.4183487224294
27	27	26	0.973
27	28	27	1.833810171815
27	29	28	0.973
27	30	29	0.973
27	31	30	5.4184859500869
27	32	31	7.3544893531004
27	33	32	5.3115363618829
27	34	33	4.7639810356663
27	35	34	2.2746711267428
27	36	35	1.4364218284977
27	37	36	0.973
27	38	37	1.8558114307756
27	39	38	1.485890893046
27	40	39	3.2533257271346
27	41	40	0.973
27	42	41	1.5346812040782
27	43	42	2.1368709742892
27	44	43	2.9511971561674
26	24	23	-0.3302179642953
26	25	24	0.86443167794496
26	26	25	-0.15014211528469
26	27	26	-0.4049019977916
26	28	27	0.0047592000337318
26	29	28	-3.1289279145242
26	30	29	-3.5144192154985
26	31	30	2.2379665308399
26	32	31	2.433438217896
26	33	32	1.3325613724587
26	34	33	1.0033899515402
26	35	34	0.1396926463116
26	36	35	-0.14319720512722
26	37	36	-0.89702797601931
26	38	37	0.029061027243733
26	39	38	-0.10611255250405
26	40	39	0.51641763539519
26	41	40	-0.44511694652028
26	42	41	-0.087444642512128
26	43	42	0.13300934082363
26	44	43	0.40762875780929
24	23	22	11.693463310181
24	24	23	11.363245345885
24	25	24	12.22767702383
24	26	25	12.077534908546
24	27	26	11.672632910754
24	28	27	11.677392110788
24	29	28	8.5484641962634
24	30	29	5.0340449807649
24	31	30	7.2720115116049
24	32	31	9.7054497295009
24	33	32	11.03801110196
24	34	33	12.0414010535
24	35	34	12.181093699811
24	36	35	12.037896494684
24	37	36	11.140868518665
24	38	37	11.169929545909
24	39	38	11.063816993405
24	40	39	11.5802346288
24	41	40	11.135117682279
24	42	41	11.047673039767
24	43	42	11.180682380591
24	44	43	11.5883111384
21	22	21	28.571856717077
21	23	22	28.571856717077
21	24	23	33.436926064253
21	25	24	38.164608116206
21	26	25	43.251937258807
21	27	26	48.276799723793
21	28	27	53.133202576274
21	29	28	57.991585495532
21	30	29	61.5481769025
21	31	30	63.642593011618
21	32	31	66.948983945056
21	33	32	69.378359181543
21	34	33	69.364862530511
21	35	34	69.35013899142
21	36	35	69.335244644121
21	37	36	69.320525390204
21	38	37	69.306902970984
21	39	38	69.293245017596
21	40	39	69.279716812591
21	41	40	69.265557161527
21	42	41	69.251941774102
21	43	42	69.238433309003
21	44	43	69.224762207662
20	22	21	48.407796666299
20	23	22	48.407796666299
20	24	23	59.041503559915
20	25	24	69.37491951746
20	26	25	80.494425348381
20	27	26	91.477396159353
20	28	27	102.09216047316
20	29	28	112.71125266973
20	30	29	120.48498575824
20	31	30	125.06280478368
20	32	31	131.53746127762
20	33	32	140.80191602812
20	34	33	151.83992713008
20	35	34	163.88132818358
20	36	35	176.06242188339
20	37	36	188.10031837807
20	38	37	199.24118689674
20	39	38	210.41111644265
20	40	39	221.47493343605
20	41	40	233.05516806485
20	42	41	244.19028574713
20	43	42	255.2379587869
20	44	43	266.41864116749
vector 50 RSUExampleScenario.node[10].veinsmobility posx ETV
vector 51 RSUExampleScenario.node[10].veinsmobility posy ETV
vector 52 RSUExampleScenario.node[11].veinsmobility posx ETV
vector 53 RSUExampleScenario.node[11].veinsmobility posy ETV
vector 54 RSUExampleScenario.node[10].veinsmobility speed ETV
vector 55 RSUExampleScenario.node[11].veinsmobility speed ETV
vector 56 RSUExampleScenario.node[10].veinsmobility acceleration ETV
vector 57 RSUExampleScenario.node[10].veinsmobility co2emission ETV
vector 58 RSUExampleScenario.node[11].veinsmobility acceleration ETV
vector 59 RSUExampleScenario.node[11].veinsmobility co2emission ETV
39	33	32	2.5788620838914
39	34	33	0.973
39	35	34	3.5133987153667
39	36	35	0.973
39	37	36	1.6342021257025
39	38	37	1.4477652548304
39	39	38	3.0221780450536
39	40	39	0.973
39	41	40	1.4574338618375
39	42	41	2.2348066412272
39	43	42	0.973
39	44	43	3.6286258993592
39	45	44	2.4750353636889
39	46	45	1.3170709431688
39	47	46	1.4813349255536
39	48	47	0.973
39	49	48	2.7936370963193
39	50	49	1.8133751140244
39	51	50	1.2676482860926
39	52	51	1.9505651170003
39	53	52	1.2683751962763
39	54	53	0.973
39	55	54	3.3051048281975
39	56	55	0.973
38	33	32	0.37581002123188
38	34	33	-0.20004907608964
38	35	34	0.71297986852005
38	36	35	-0.47317559288349
38	37	36	-0.019522035261616
38	38	37	-0.095184519467875
38	39	38	0.52306425094139
38	40	39	-0.6959086785093
38	41	40	-0.085255191568285
38	42	41	0.23734331028536
38	43	42	-0.33173692431301
38	44	43	0.77606560324784
38	45	44	0.29277805786114
38	46	45	-0.15920478515327
38	47	46	-0.091701041394844
38	48	47	-0.41137197876815
38	49	48	0.43422872768715
38	50	49	0.039597949804739
38	51	50	-0.17601431207731
38	52	51	0.097600897960364
38	53	52	-0.17462877726648
38	54	53	-0.32311198699754
38	55	54	0.63071438523475
38	56	55	-0.27679925935809
35	32	31	9.5543354981728
35	33	32	9.9301455194047
35	34	33	9.730096443315
35	35	34	10.443076311835
35	36	35	9.9699007189516
35	37	36	9.95037868369
35	38	37	9.8551941642221
35	39	38	10.378258415164
35	40	39	9.6823497366542
35	41	40	9.5970945450859
35	42	41	9.8344378553713
35	43	42	9.5027009310583
35	44	43	10.278766534306
35	45	44	10.571544592167
35	46	45	10.412339807014
35	47	46	10.320638765619
35	48	47	9.909266786851
35	49	48	10.343495514538
35	50	49	10.383093464343
35	51	50	10.207079152266
35	52	51	10.304680050226
35	53	52	10.130051272959
35	54	53	9.8069392859619
35	55	54	10.437653671197
35	56	55	10.160854411839
33	31	30	68.133230370666
33	32	31	68.133230370666
33	33	32	68.101814161873
33	34	33	68.069162228619
33	35	34	68.037168089258
33	36	35	68.002829556148
33	37	36	67.970046901333
33	38	37	67.937328438144
33	39	38	67.904922957134
33	40	39	67.870797555808
33	41	40	67.838960415383
33	42	41	68.091469630067
33	43	42	69.343864464502
33	44	43	69.369046706147
33	45	44	69.356478416111
33	46	45	69.343552133748
33	47	46	69.330820517926
33	48	47	69.318201028911
33	49	48	69.306084542113
33	50	49	69.293437105168
33	51	50	69.280741250107
33	52	51	69.268260615317
33	53	52	69.25566063971
33	54	53	69.243274190222
33	55	54	69.231282823661
33	56	55	69.218520255488
32	31	30	30.099491829414
32	32	31	30.099491829414
32	33	32	39.65287532126
32	34	33	49.582031388142
32	35	34	59.311158312082
32	36	35	69.753194062308
32	37	36	79.722101367477
32	38	37	89.671488582586
32	39	38	99.525700762535
32	40	39	109.90292507463
32	41	40	119.58431004945
32	42	41	129.17047319894
32	43	42	138.91646132022
32	44	43	148.41796882292
32	45	44	158.69673535723
32	46	45	169.2682799494
32	47	46	179.68061975641
32	48	47	190.00125852203
32	49	48	199.91052530888
32	50	49	210.25402082342
32	51	50	220.63711428776
32	52	51	230.84419344003
32	53	52	241.14887349025
32	54	53	251.27892476321
32	55	54	261.08586404918
32	56	55	271.52351772037
49	43	42	0.973
49	44	43	4.0007962868797
49	45	44	2.6561057169424
49	46	45	2.859553592947
49	47	46	0.973
49	48	47	3.9689342245161
49	49	48	2.4834303579313
49	50	49	1.7609279020727
49	51	50	0.973
49	52	51	0.973
49	53	52	0.973
49	54	53	0.973
49	55	54	0.973
49	56	55	0.973
49	57	56	1.2370274823719
49	58	57	9.2138072715234
48	43	42	-0.7741203722544
48	44	43	0.40009836677928
48	45	44	0.06756161886733
48	46	45	0.11300771026872
48	47	46	-0.57102975638118
48	48	47	0.39218180803582
48	49	48	0.026622821297497
48	50	49	-0.14716801408213
48	51	50	-0.91198006103815
48	52	51	-1.826433288514
48	53	52	-0.55703792238374
48	54	53	-0.84171769785353
48	55	54	-1.1039468615987
48	56	55	-0.36774529320936
48	57	56	-0.19830271517735
48	58	57	2.2712175081484
45	42	41	17.274399272958
45	43	42	16.500278900703
45	44	43	16.900377267483
45	45	44	16.96793888635
45	46	45	17.080946596619
45	47	46	16.509916840238
45	48	47	16.902098648273
45	49	48	16.928721469571
45	50	49	16.781553455489
45	51	50	15.869573394451
45	52	51	14.043140105937
45	53	52	13.486102183553
45	54	53	12.644384485699
45	55	54	11.540437624101
45	56	55	11.172692330891
45	57	56	10.974389615714
45	58	57	13.245607123862
43	41	40	68.133230370666
43	42	41	68.133230370666
43	43	42	68.076429336787
43	44	43	68.022173736575
43	45	44	67.966602547872
43	46	45	67.910809205579
43	47	46	67.854644275558
43	48	47	68.423809327291
43	49	48	69.369403762283
43	50	49	69.348704286266
43	51	50	69.328184758911
43	52	51	69.308780348809
43	53	52	69.291609197263
43	54	53	69.275119159949
43	55	54	69.259658327075
43	56	55	69.24554733752
43	57	56	69.231886005956
43	58	57	69.218467147653
42	41	40	30.099491829414
42	42	41	30.099491829414
42	43	42	47.372169858921
42	44	43	63.870804650527
42	45	44	80.769497942595
42	46	45	97.735746121602
42	47	46	114.81499075064
42	48	47	131.28760015904
42	49	48	148.12595641262
42	50	49	165.05467788219
42	51	50	181.83623133768
42	52	51	197.70580473213
42	53	52	211.74894483807
42	54	53	225.23504702162
42	55	54	237.87943150732
42	56	55	249.41986913142
42	57	56	260.59256146231
42	58	57	271.56695107803
vector 60 RSUExampleScenario.node[12].veinsmobility posx ETV
vector 61 RSUExampleScenario.node[12].veinsmobility posy ETV
vector 62 RSUExampleScenario.node[13].veinsmobility posx ETV
vector 63 RSUExampleScenario.node[13].veinsmobility posy ETV
vector 64 RSUExampleScenario.node[12].veinsmobility speed ETV
vector 65 RSUExampleScenario.node[13].veinsmobility speed ETV
vector 66 RSUExampleScenario.node[12].veinsmobility acceleration ETV
vector 67 RSUExampleScenario.node[12].veinsmobility co2emission ETV
vector 68 RSUExampleScenario.node[13].veinsmobility acceleration ETV
vector 69 RSUExampleScenario.node[13].veinsmobility co2emission ETV
37	33	32	0.973
37	34	33	2.6112221999565
37	35	34	1.5005195846058
37	36	35	0.973
37	37	36	3.1103365019451
37	38	37	0.973
37	39	38	0.973
37	40	39	0.973
37	41	40	1.1118318538755
37	42	41	1.1101877680616
37	43	42	1.1100406504834
37	44	43	1.110013367479
37	45	44	0.973
37	46	45	0.973
37	47	46	0.973
37	48	47	0.973
37	49	48	1.7539360593193
37	50	49	3.2868879246166
37	51	50	2.9474854279568
37	52	51	5.8361727188291
37	53	52	5.5829658964561
37	54	53	5.9341269931201
37	55	54	6.4990836832474
37	56	55	2.3242356200086
37	57	56	3.5115188458178
37	58	57	0.973
37	59	58	0.973
37	60	59	4.7090448066229
37	61	60	2.1093799023131
37	62	61	2.4158468884177
37	63	62	0.973
36	33	32	-0.41905477968976
36	34	33	0.23870467701927
36	35	34	-0.12769495695829
36	36	35	-0.41917023418937
36	37	36	0.41297644344203
36	38	37	-4.5
36	39	38	-4.5
36	40	39	-3.3093707027473
36	41	40	-0.0083668454627136
36	42	41	-0.034915374776028
36	43	42	-0.0038555600642959
36	44	43	-0.00058131116461669
36	45	44	-0.00027791072042255
36	46	45	0
36	47	46	0
36	48	47	0
36	49	48	1.5371580544859
36	50	49	2.2069676619256
36	51	50	1.3012473299867
36	52	51	2.4092173396843
36	53	52	1.7775368282571
36	54	53	1.602373542008
36	55	54	1.5470863342616
36	56	55	0.14202060052194
36	57	56	0.49995563577395
36	58	57	-0.70429028181825
36	59	58	-0.39581854622811
36	60	59	0.90124493208714
36	61	60	0.058103389432654
36	62	61	0.15046204181854
36	63	62	-1.0954796629027
34	32	31	12.671606555312
34	33	32	12.252551775622
34	34	33	12.491256452641
34	35	34	12.363561495683
34	36	35	11.944391261493
34	37	36	12.357367704935
34	38	37	7.8573677049354
34	39	38	3.3573677049354
34	40	39	0.047997002188077
34	41	40	0.039630156725363
34	42	41	0.0047147819493352
34	43	42	0.00085922188503923
34	44	43	0.00027791072042255
34	45	44	0
34	46	45	0
34	47	46	0
34	48	47	0
34	49	48	1.5371580544859
34	50	49	3.7441257164115
34	51	50	5.0453730463982
34	52	51	7.4545903860824
34	53	52	9.2321272143396
34	54	53	10.834500756348
34	55	54	12.381587090609
34	56	55	12.523607691131
34	57	56	13.023563326905
34	58	57	12.319273045087
34	59	58	11.923454498859
34	60	59	12.824699430946
34	61	60	12.882802820379
34	62	61	13.033264862197
34	63	62	11.937785199294
31	31	30	28.571856717077
31	32	31	28.571856717077
31	33	32	33.843882890713
31	34	33	38.941561182171
31	35	34	44.13855263487
31	36	35	49.282416557735
31	37	36	54.251884563538
31	38	37	59.393171557676
31	39	38	62.662232036747
31	40	39	64.05906600075
31	41	40	64.07903516967
31	42	41	64.095523309718
31	43	42	64.097484896336
31	44	43	64.09784237589
31	45	44	64.097958000739
31	46	45	64.097958000739
31	47	46	64.097958000739
31	48	47	64.097958000739
31	49	48	64.097958000739
31	50	49	64.794565784178
31	51	50	66.525587419826
31	52	51	68.617667818026
31	53	52	69.376038071817
31	54	53	69.364749552704
31	55	54	69.351501742527
31	56	55	69.336362243334
31	57	56	69.321049089442
31	58	57	69.305124618286
31	59	58	69.290061313157
31	60	59	69.275481992392
31	61	60	69.259800680677
31	62	61	69.244048323448
31	63	62	69.228111989807
30	31	30	48.407796666299
30	32	31	48.407796666299
30	33	32	59.930999536666
30	34	33	71.07312576777
30	35	34	82.432323323445
30	36	35	93.675398674083
30	37	36	104.53729239438
30	38	37	115.77473528579
30	39	38	122.92000464811
30	40	39	125.97310048134
30	41	40	126.01674760619
30	42	41	126.05278615693
30	43	42	126.05707364712
30	44	43	126.05785499936
30	45	44	126.05810772356
30	46	45	126.05810772356
30	47	46	126.05810772356
30	48	47	126.05810772356
30	49	48	126.05810772356
30	50	49	127.42814620579
30	51	50	130.7476162978
30	52	51	135.33005630912
30	53	52	142.7001969324
30	54	53	151.93232414674
30	55	54	162.76682490309
30	56	55	175.1484119937
30	57	56	187.67201968483
30	58	57	200.69558301174
30	59	58	213.01485605682
30	60	59	224.93831055568
30	61	60	237.76300998663
30	62	61	250.64581280701
30	63	62	263.6790776692
47	43	42	2.6555799223793
47	44	43	0.973
47	45	44	3.1598143547653
47	46	45	0.973
47	47	46	0.973
47	48	47	0.973
47	49	48	0.973
47	50	49	1.4879276279797
47	51	50	3.2744683820254
47	52	51	2.4968696452214
47	53	52	5.3345078927405
47	54	53	7.2973967304625
47	55	54	4.7816503025511
47	56	55	5.2787972280012
47	57	56	3.3372236022497
47	58	57	5.86982658366
47	59	58	0.973
47	60	59	0.973
47	61	60	7.3655202189534
47	62	61	1.4711832748859
47	63	62	0.973
47	64	63	0.973
47	65	64	7.3470717127019
46	43	42	0.1710489428835
46	44	43	-0.53249668327626
46	45	44	0.32848945599981
46	46	45	-2.5395349138785
46	47	46	-4.5
46	48	47	-4.5
46	49	48	-2.0118656835611
46	50	49	0.90275788000903
46	51	50	2.2447969309965
46	52	51	1.0196582196182
46	53	52	2.2930843308568
46	54	53	2.4799598257989
46	55	54	1.1874778302619
46	56	55	1.2055662040697
46	57	56	0.4902633036642
46	58	57	1.1892965831517
46	59	58	-1.252642646483
46	60	59	-0.73927154410851
46	61	60	1.6941788200119
46	62	61	-0.15120491083913
46	63	62	-0.90995117591983
46	64	63	-0.65645288646259
46	65	64	1.6923847137019
44	42	41	14.102428888158
44	43	42	14.273477831041
44	44	43	13.740981147765
44	45	44	14.069470603765
44	46	45	11.529935689887
44	47	46	7.0299356898865
44	48	47	2.5299356898865
44	49	48	0.51807000632544
44	50	49	1.4208278863345
44	51	50	3.6656248173309
44	52	51	4.6852830369491
44	53	52	6.9783673678059
44	54	53	9.4583271936048
44	55	54	10.645805023867
44	56	55	11.851371227936
44	57	56	12.341634531601
44	58	57	13.530931114752
44	59	58	12.278288468269
44	60	59	11.539016924161
44	61	60	13.233195744173
44	62	61	13.081990833334
44	63	62	12.172039657414
44	64	63	11.515586770951
44	65	64	13.207971484653
41	41	40	28.571856717077
41	42	41	28.571856717077
41	43	42	34.439177004026
41	44	43	40.37766226125
41	45	44	46.094602094115
41	46	45	51.948210075746
41	47	46	56.745243701442
41	48	47	59.67005081207
41	49	48	60.722631407631
41	50	49	60.938174608187
41	51	50	61.529310528664
41	52	51	63.054394968063
41	53	52	65.086210158614
41	54	53	68.182127413723
41	55	54	69.37502017626
41	56	55	69.362003092473
41	57	56	69.347511911024
41	58	57	69.332421263543
41	59	58	69.315876411966
41	60	59	69.300863220442
41	61	60	69.286753968038
41	62	61	69.270573170308
41	63	62	69.254577257326
41	64	63	69.239693980794
41	65	64	69.225613377446
40	41	40	48.407796666299
40	42	41	48.407796666299
40	43	42	61.232149153399
40	44	43	74.212048741888
40	45	44	86.707710812237
40	46	45	99.502091961792
40	47	46	109.9870914334
40	48	47	116.37991737592
40	49	48	118.68056978935
40	50	49	119.15168809293
40	51	50	120.44374904089
40	52	51	123.77716522868
40	53	52	127.9976293038
40	54	53	134.24286766632
40	55	54	143.53266584874
40	56	55	154.17847087261
40	57	56	166.02984210054
40	58	57	178.37147663214
40	59	58	191.9024077469
40	60	59	204.18069621517
40	61	60	215.71971313933
40	62	61	228.9529088835
40	63	62	242.03489971683
40	64	63	254.20693937425
40	65	64	265.7225261452
vector 70 RSUExampleScenario.node[14].veinsmobility posx ETV
vector 71 RSUExampleScenario.node[14].veinsmobility posy ETV
vector 72 RSUExampleScenario.node[15].veinsmobility posx ETV
vector 73 RSUExampleScenario.node[15].veinsmobility posy ETV
59	52	51	2.3395717271362
59	53	52	0.973
59	54	53	3.7051934391106
59	55	54	2.7469855791473
59	56	55	2.8910937941136
59	57	56	0.973
59	58	57	1.3475661879723
59	59	58	0.973
59	60	59	1.9925016153541
59	61	60	3.1159739001902
59	62	61	1.1495991776757
59	63	62	2.8986092427518
59	64	63	0.973
59	65	64	1.7379336513491
59	66	65	1.8446126613881
59	67	66	3.9974601621078
59	68	67	0.973
59	69	68	2.2960515945222
59	70	69	1.9999039660521
58	52	51	0.12654089867137
58	53	52	-1.1569830177119
58	54	53	0.60370221445337
58	55	54	0.27069604764693
58	56	55	0.30125141311437
58	57	56	-0.2893570111366
58	58	57	-0.18232956463471
58	59	58	-0.5448682279326
58	60	59	0.047250840510243
58	61	60	0.40704406087752
58	62	61	-0.2441323073348
58	63	62	0.32989596803673
58	64	63	-0.57778500220738
58	65	64	-0.036914168507792
58	66	65	0.00011894712224603
58	67	66	0.68660360809881
58	68	67	-0.61139364144765
58	69	68	0.14726546488237
58	70	69	0.044798154663296
55	51	50	12.897672841136
55	52	51	13.024213739808
55	53	52	11.867230722096
55	54	53	12.470932936549
55	55	54	12.741628984196
55	56	55	13.042880397311
55	57	56	12.753523386174
55	58	57	12.571193821539
55	59	58	12.026325593607
55	60	59	12.073576434117
55	61	60	12.480620494994
55	62	61	12.23648818766
55	63	62	12.566384155696
55	64	63	11.988599153489
55	65	64	11.951684984981
55	66	65	11.951803932103
55	67	66	12.638407540202
55	68	67	12.027013898755
55	69	68	12.174279363637
55	70	69	12.2190775183
53	50	49	68.133230370666
53	51	50	68.133230370666
53	52	51	68.090820725014
53	53	52	68.047994992311
53	54	53	68.008973607911
53	55	54	67.96796715246
53	56	55	67.926070604386
53	57	56	67.883183492677
53	58	57	67.841247833874
53	59	58	68.444810049911
53	60	59	69.375199997038
53	61	60	69.360437115725
53	62	61	69.345176524127
53	63	62	69.330214443604
53	64	63	69.314848985089
53	65	64	69.300190009152
53	66	65	69.285576169757
53	67	66	69.270962184921
53	68	67	69.255508660315
53	69	68	69.240802713017
53	70	69	69.225916697899
52	50	49	30.099491829414
52	51	50	30.099491829414
52	52	51	42.995879529773
52	53	52	56.018795520105
52	54	53	67.884843776007
52	55	54	80.354534092695
52	56	55	93.094893484525
52	57	56	106.13647427239
52	58	57	118.88872688102
52	59	58	131.42138254018
52	60	59	143.38560242242
52	61	60	155.45917885653
52	62	61	167.93979935153
52	63	62	180.17628753919
52	64	63	192.74267169488
52	65	64	204.73127084837
52	66	65	216.68295583335
52	67	66	228.63475976546
52	68	67	241.27316730566
52	69	68	253.30018120441
52	70	69	265.47446056805
vector 74 RSUExampleScenario.node[14].veinsmobility speed ETV
vector 75 RSUExampleScenario.node[15].veinsmobility speed ETV
vector 76 RSUExampleScenario.node[14].veinsmobility acceleration ETV
vector 77 RSUExampleScenario.node[14].veinsmobility co2emission ETV
vector 78 RSUExampleScenario.node[15].veinsmobility acceleration ETV
vector 79 RSUExampleScenario.node[15].veinsmobility co2emission ETV
57	52	51	2.9166867031234
57	53	52	1.09773639498
57	54	53	6.6914268767595
57	55	54	0.973
57	56	55	0.973
57	57	56	0.973
57	58	57	0.973
57	59	58	0.973
57	60	59	1.7860248407234
57	61	60	3.145085609069
57	62	61	4.8574503770919
57	63	62	5.6645175216972
57	64	63	6.7592600058882
57	65	64	8.231061672503
57	66	65	9.6759351754963
57	67	66	3.5080895450212
57	68	67	0.973
57	69	68	2.0217327773099
57	70	69	3.3649104924641
57	71	70	4.7140270591849
57	72	71	2.3827231895101
57	73	72	0.973
56	52	51	0.22703600549139
56	53	52	-0.28335011608433
56	54	53	1.1904998962302
56	55	54	-3.6422552948941
56	56	55	-2.9046161918018
56	57	56	-4.5
56	58	57	-4.0435340230824
56	59	58	-0.46055245122539
56	60	59	1.5483920405386
56	61	60	2.0844450560166
56	62	61	2.3578617253341
56	63	62	2.0957160377176
56	64	63	2.0581908012973
56	65	64	2.1367149832193
56	66	65	2.1694731432712
56	67	66	0.38318262400142
56	68	67	-0.35529634265695
56	69	68	-0.020241854828782
56	70	69	0.34492404735647
56	71	70	0.67042154041119
56	72	71	0.045930834976025
56	73	72	-0.89432931074407
54	51	50	14.47170266833
54	52	51	14.698738673822
54	53	52	14.415388557737
54	54	53	15.605888453968
54	55	54	11.963633159073
54	56	55	9.0590169672717
54	57	56	4.5590169672717
54	58	57	0.51548294418928
54	59	58	0.0549304929639
54	60	59	1.6033225335025
54	61	60	3.6877675895191
54	62	61	6.0456293148531
54	63	62	8.1413453525708
54	64	63	10.199536153868
54	65	64	12.336251137087
54	66	65	14.505724280359
54	67	66	14.88890690436
54	68	67	14.533610561703
54	69	68	14.513368706874
54	70	69	14.858292754231
54	71	70	15.528714294642
54	72	71	15.574645129618
54	73	72	14.680315818874
51	50	49	28.571856717077
51	51	50	28.571856717077
51	52	51	34.592813484594
51	53	52	40.708228658635
51	54	53	46.70575592148
51	55	54	53.198591066971
51	56	55	58.17606467074
51	57	56	61.945071729979
51	58	57	63.84185227415
51	59	58	64.056319126634
51	60	59	64.079172976726
51	61	60	64.804143621149
51	62	61	66.508890044728
51	63	62	68.90021791723
51	64	63	69.374018507836
51	65	64	69.361547096194
51	66	65	69.346463031221
51	67	66	69.328726258105
51	68	67	69.31052095111
51	69	68	69.292750080237
51	70	69	69.275003959952
51	71	70	69.256836086195
51	72	71	69.237848459179
51	73	72	69.218804670555
50	50	49	48.407796666299
50	51	50	48.407796666299
50	52	51	61.567956350779
50	53	52	74.934576197886
50	54	53	88.043525412881
50	55	54	102.23508177493
50	56	55	113.1144735361
50	57	56	121.35248896566
50	58	57	125.49833086613
50	59	58	125.96709656811
50	60	59	126.01704881461
50	61	60	127.446848491
50	62	61	130.71646739338
50	63	62	136.24636529466
50	64	63	144.35186367507
50	65	64	154.55139982894
50	66	65	166.88765096603
50	67	66	181.39337524639
50	68	67	196.28228215075
50	69	68	210.81589271245
50	70	69	225.32926141932
50	71	70	240.18755417355
50	72	71	255.7162684682
50	73	72	271.29091359781
vector 80 RSUExampleScenario.node[16].veinsmobility posx ETV
vector 81 RSUExampleScenario.node[16].veinsmobility posy ETV
vector 82 RSUExampleScenario.node[17].veinsmobility posx ETV
vector 83 RSUExampleScenario.node[17].veinsmobility posy ETV
69	62	61	2.0797431865045
69	63	62	1.6257256186893
69	64	63	2.223581839256
69	65	64	0.973
69	66	65	1.518161989555
69	67	66	2.0627548438639
69	68	67	3.4067306488657
69	69	68	1.1401959959958
69	70	69	0.973
69	71	70	2.2255783059725
69	72	71	3.452129399813
69	73	72	2.0984093056948
69	74	73	0.973
69	75	74	1.5727535521225
69	76	75	4.2975882878731
69	77	76	0.973
69	78	77	3.734160120327
69	79	78	0.973
68	62	61	0.025561121525243
68	63	62	-0.11075495050754
68	64	63	0.070937185222283
68	65	64	-0.47726873503998
68	66	65	-0.13319220212288
68	67	66	0.040274230996147
68	68	67	0.44167906534858
68	69	68	-0.25693563173991
68	70	69	-0.31961160062347
68	71	70	0.093916247365996
68	72	71	0.45735676551703
68	73	72	0.036430447991005
68	74	73	-0.38649479078595
68	75	74	-0.11547839678824
68	76	75	0.70004441286437
68	77	76	-0.61750900605693
68	78	77	0.53415433936752
68	79	78	-0.63098887710366
65	61	60	13.550995407266
65	62	61	13.576556528791
65	63	62	13.465801578283
65	64	63	13.536738763506
65	65	64	13.059470028466
65	66	65	12.926277826343
65	67	66	12.966552057339
65	68	67	13.408231122687
65	69	68	13.151295490948
65	70	69	12.831683890324
65	71	70	12.92560013769
65	72	71	13.382956903207
65	73	72	13.419387351198
65	74	73	13.032892560412
65	75	74	12.917414163624
65	76	75	13.617458576488
65	77	76	12.999949570431
65	78	77	13.534103909799
65	79	78	12.903115032695
63	60	59	68.133230370666
63	61	60	68.133230370666
63	62	61	68.088672494177
63	63	62	68.044030568564
63	64	63	67.999752823239
63	65	64	67.955241824913
63	66	65	67.9123001638
63	67	66	67.869796460305
63	68	67	67.82716032859
63	69	68	69.182359048716
63	70	69	69.367562357281
63	71	70	69.351872505367
63	72	71	69.336067818017
63	73	72	69.319703900874
63	74	73	69.303295438656
63	75	74	69.287359560245
63	76	75	69.271564882238
63	77	76	69.254914229811
63	78	77	69.239018632211
63	79	78	69.222469901121
62	60	59	30.099491829414
62	61	60	30.099491829414
62	62	61	43.649136997998
62	63	62	57.224340741164
62	64	63	70.688800569589
62	65	64	84.224190514964
62	66	65	97.282359280971
62	67	66	110.2073491163
62	68	67	123.17260916965
62	69	68	136.48715069111
62	70	69	149.63191880363
62	71	70	162.46360269395
62	72	71	175.38920283164
62	73	72	188.77215973485
62	74	73	202.19154708605
62	75	74	215.22443964646
62	76	75	228.14185381008
62	77	76	241.75931238657
62	78	77	254.759261957
62	79	78	268.2933658668
vector 84 RSUExampleScenario.node[16].veinsmobility speed ETV
vector 85 RSUExampleScenario.node[17].veinsmobility speed ETV
vector 86 RSUExampleScenario.node[16].veinsmobility acceleration ETV
vector 87 RSUExampleScenario.node[16].veinsmobility co2emission ETV
vector 88 RSUExampleScenario.node[17].veinsmobility acceleration ETV
vector 89 RSUExampleScenario.node[17].veinsmobility co2emission ETV
67	62	61	3.625779393564
67	63	62	1.9710143962558
67	64	63	1.7022346822372
67	65	64	3.2593207931839
67	66	65	0.973
67	67	66	0.973
67	68	67	0.973
67	69	68	3.7457028824228
67	70	69	5.3370785539857
67	71	70	5.4229749841916
67	72	71	8.7366254265477
67	73	72	2.3420308659961
67	74	73	5.1110480066832
67	75	74	2.0724514525711
67	76	75	0.973
67	77	76	5.0306172673627
67	78	77	0.973
67	79	78	0.973
67	80	79	2.5271492814027
67	81	80	4.8312959445341
67	82	81	1.6755332516567
66	62	61	0.58078789128922
66	63	62	0.027295983978547
66	64	63	-0.060719833848998
66	65	64	0.43222997805569
66	66	65	-1.0451058814982
66	67	66	-4.5
66	68	67	-3.9097771844128
66	69	68	1.8748070070287
66	70	69	2.1507710573962
66	71	70	1.7293301475234
66	72	71	2.4762424994027
66	73	72	0.18056778807471
66	74	73	1.032552126213
66	75	74	0.04696776464116
66	76	75	-1.143609084608
66	77	76	1.0154026365606
66	78	77	-0.55770250104833
66	79	78	-0.46602531839162
66	80	79	0.23737560440786
66	81	80	0.9349910718156
66	82	81	-0.079669173434377
64	61	60	11.844525361551
64	62	61	12.42531325284
64	63	62	12.452609236818
64	64	63	12.391889402969
64	65	64	12.824119381025
64	66	65	11.779013499527
64	67	66	7.2790134995269
64	68	67	3.3692363151141
64	69	68	5.2440433221428
64	70	69	7.394814379539
64	71	70	9.1241445270624
64	72	71	11.600387026465
64	73	72	11.78095481454
64	74	73	12.813506940753
64	75	74	12.860474705394
64	76	75	11.716865620786
64	77	76	12.732268257347
64	78	77	12.174565756298
64	79	78	11.708540437907
64	80	79	11.945916042314
64	81	80	12.88090711413
64	82	81	12.801237940696
61	60	59	28.571856717077
61	61	60	28.571856717077
61	62	61	33.499775481586
61	63	62	38.669331243806
61	64	63	43.85024350935
61	65	64	49.005893267579
61	66	65	54.341372453701
61	67	66	59.242034985959
61	68	67	62.270471003148
61	69	68	63.672242906411
61	70	69	66.024602173055
61	71	70	68.948064889463
61	72	71	69.372420555723
61	73	72	69.358236263455
61	74	73	69.343831183184
61	75	74	69.328163557009
61	76	75	69.312438501326
61	77	76	69.29811178567
61	78	77	69.282543493528
61	79	78	69.267657128225
61	80	79	69.253340592128
61	81	80	69.238733806668
61	82	81	69.222983767401
60	60	59	48.407796666299
60	61	60	48.407796666299
60	62	61	59.178875143885
60	63	62	70.478105806971
60	64	63	81.802158670743
60	65	64	93.070994624122
60	66	65	104.73288837187
60	67	66	115.44439220332
60	68	67	122.06372250569
60	69	68	125.12761131945
60	70	69	129.81302978482
60	71	70	136.56684973131
60	72	71	145.65872217812
60	73	72	157.25910920458
60	74	73	169.04006401912
60	75	74	181.85357095987
60	76	75	194.71404566527
60	77	76	206.43091128605
60	78	77	219.1631795434
60	79	78	231.3377452997
60	80	79	243.0462857376
60	81	80	254.99220177992
60	82	81	267.87310889405
79	72	71	2.5876105773895
79	73	72	0.973
79	74	73	4.4865157228195
79	75	74	0.973
79	76	75	3.0374877771196
79	77	76	2.8759230580157
79	78	77	0.973
79	79	78	3.1764833640287
79	80	79	3.6303140266987
79	81	80	0.973
79	82	81	2.9862969441732
79	83	82	0.973
79	84	83	1.5647437092521
79	85	84	5.6532512397902
79	86	85	0.973
79	87	86	2.1691546470881
79	88	87	2.4074304055128
78	72	71	0.14935632725246
78	73	72	-0.85870913940016
78	74	73	0.71134046129882
78	75	74	-0.46410242305137
78	76	75	0.29572632019408
78	77	76	0.23660386223346
78	78	77	-0.59246249655262
78	79	78	0.33788735074923
78	80	79	0.44464115016162
78	81	80	-0.64877241745126
78	82	81	0.27776024877094
78	83	82	-0.68397664343938
78	84	83	-0.12508606379852
78	85	84	1.0405632463749
78	86	85	-0.9128601285629
78	87	86	0.057696972740814
78	88	87	0.12624174717348
75	71	70	14.171332577407
75	72	71	14.32068890466
75	73	72	13.46197976526
75	74	73	14.173320226558
75	75	74	13.709217803507
75	76	75	14.004944123701
75	77	76	14.241547985935
75	78	77	13.649085489382
75	79	78	13.986972840131
75	80	79	14.431613990293
75	81	80	13.782841572841
75	82	81	14.060601821612
75	83	82	13.376625178173
75	84	83	13.251539114375
75	85	84	14.292102360749
75	86	85	13.379242232187
75	87	86	13.436939204927
75	88	87	13.563180952101
73	70	69	68.133230370666
73	71	70	68.133230370666
73	72	71	68.086632724686
73	73	72	68.039543970814
73	74	73	67.995278792232
73	75	74	67.948674610538
73	76	75	67.903596473082
73	77	76	67.857545939395
73	78	77	68.006754523714
73	79	78	69.377234012379
73	80	79	69.360131538965
73	81	80	69.342485383688
73	82	81	69.325632510357
73	83	82	69.30844000762
73	84	83	69.29208383255
73	85	84	69.275880605591
73	86	85	69.258405037186
73	87	86	69.242045662132
73	88	87	69.225615738506
72	70	69	30.099491829414
72	71	70	30.099491829414
72	72	71	44.269412356943
72	73	72	58.588674329667
72	74	73	72.049312725879
72	75	74	86.221220704507
72	76	75	99.929072503849
72	77	76	113.93262115683
72	78	77	128.16688073268
72	79	78	141.72211687641
72	80	79	155.70908971654
72	81	80	170.14070370683
72	82	81	183.92354527967
72	83	82	197.98414710129
72	84	83	211.36077227946
72	85	84	224.61231139383
72	86	85	238.90441375458
72	87	86	252.28365598677
72	88	87	265.7205951917
vector 90 RSUExampleScenario.node[18].veinsmobility posx ETV
vector 91 RSUExampleScenario.node[18].veinsmobility posy ETV
vector 92 RSUExampleScenario.node[19].veinsmobility posx ETV
vector 93 RSUExampleScenario.node[19].veinsmobility posy ETV
vector 94 RSUExampleScenario.node[18].veinsmobility speed ETV
vector 95 RSUExampleScenario.node[19].veinsmobility speed ETV
vector 96 RSUExampleScenario.node[18].veinsmobility acceleration ETV
vector 97 RSUExampleScenario.node[18].veinsmobility co2emission ETV
vector 98 RSUExampleScenario.node[19].veinsmobility acceleration ETV
vector 99 RSUExampleScenario.node[19].veinsmobility co2emission ETV
77	72	71	3.5708747220586
77	73	72	3.604005670642
77	74	73	1.157939394725
77	75	74	0.973
77	76	75	0.973
77	77	76	0.973
77	78	77	0.973
77	79	78	2.4178880333212
77	80	79	3.901099884646
77	81	80	3.5899159755055
77	82	81	5.3794376448547
77	83	82	6.4806648441681
77	84	83	7.2825628091368
77	85	84	5.8147690361769
77	86	85	3.5532707807788
77	87	86	0.973
77	88	87	3.305512090543
77	89	88	0.973
77	90	89	1.9151004900142
77	91	90	3.1406682467712
77	92	91	3.9537716239217
76	72	71	0.45760127997491
76	73	72	0.4399813529104
76	74	73	-0.26251801438629
76	75	74	-0.41855188323068
76	76	75	-4.4811459949783
76	77	76	-4.4388872869662
76	78	77	-3.4461874040787
76	79	78	1.6273953322554
76	80	79	2.0842022907455
76	81	80	1.383799205604
76	82	81	1.8995382485446
76	83	82	1.9309501967393
76	84	83	1.856866211188
76	85	84	1.1977728532729
76	86	85	0.46276015813928
76	87	86	-0.4191288230475
76	88	87	0.3898710281821
76	89	88	-0.54142017187551
76	90	89	-0.013742031133733
76	91	90	0.35147282315884
76	92	91	0.56000893502496
74	71	70	13.48633885449
74	72	71	13.943940134465
74	73	72	14.383921487375
74	74	73	14.121403472989
74	75	74	13.702851589758
74	76	75	9.2217055947798
74	77	76	4.7828183078136
74	78	77	1.3366309037349
74	79	78	2.9640262359903
74	80	79	5.0482285267358
74	81	80	6.4320277323398
74	82	81	8.3315659808843
74	83	82	10.262516177624
74	84	83	12.119382388812
74	85	84	13.317155242085
74	86	85	13.779915400224
74	87	86	13.360786577176
74	88	87	13.750657605358
74	89	88	13.209237433483
74	90	89	13.195495402349
74	91	90	13.546968225508
74	92	91	14.106977160533
71	70	69	28.571856717077
71	71	70	28.571856717077
71	72	71	34.182852538092
71	73	72	39.984233525706
71	74	73	45.968668903332
71	75	74	51.843883572688
71	76	75	57.544959590107
71	77	76	61.381653307595
71	78	77	63.371546474849
71	79	78	63.927652212367
71	80	79	65.258346806159
71	81	80	67.604834241579
71	82	81	69.305273883283
71	83	82	69.370431474847
71	84	83	69.357883054821
71	85	84	69.343064164596
71	86	85	69.326780705975
71	87	86	69.309931410601
71	88	87	69.29359460207
71	89	88	69.27678108146
71	90	89	69.260629578586
71	91	90	69.244494878685
71	92	91	69.227930417843
70	70	69	48.407796666299
70	71	70	48.407796666299
70	72	71	60.671894191775
70	73	72	73.352121460537
70	74	73	86.432455406116
70	75	74	99.274062847388
70	76	75	111.7350509693
70	77	76	120.12101086441
70	78	77	124.47037141412
70	79	78	125.68586599243
70	80	79	128.33375411854
70	81	80	132.80183814501
70	82	81	138.95947601067
70	83	82	147.28545882136
70	84	83	157.54797499898
70	85	84	169.66735738779
70	86	85	182.98451262988
70	87	86	196.7644280301
70	88	87	210.12521460728
70	89	88	223.87587221263
70	90	89	237.08510964612
70	91	90	250.28060504847
70	92	91	263.82757327397
vector 100 RSUExampleScenario.node[20].veinsmobility posx ETV
vector 101 RSUExampleScenario.node[20].veinsmobility posy ETV
vector 102 RSUExampleScenario.node[21].veinsmobility posx ETV
vector 103 RSUExampleScenario.node[21].veinsmobility posy ETV
vector 104 RSUExampleScenario.node[20].veinsmobility speed ETV
vector 105 RSUExampleScenario.node[21].veinsmobility speed ETV
vector 106 RSUExampleScenario.node[20].veinsmobility acceleration ETV
vector 107 RSUExampleScenario.node[20].veinsmobility co2emission ETV
vector 108 RSUExampleScenario.node[21].veinsmobility acceleration ETV
vector 109 RSUExampleScenario.node[21].veinsmobility co2emission ETV
89	81	80	1.9546058439639
89	82	81	2.1781500544914
89	83	82	0.973
89	84	83	0.973
89	85	84	1.5863767964857
89	86	85	2.1483060986676
89	87	86	0.973
89	88	87	2.4883054778363
89	89	88	0.973
89	90	89	2.4784518395861
89	91	90	0.973
89	92	91	3.2113677806364
89	93	92	0.973
89	94	93	0.973
89	95	94	1.7793352547577
89	96	95	3.7915182505752
89	97	96	0.973
89	98	97	2.1665073069003
89	99	98	0.973
89	100	99	0.973
89	101	100	2.9821152556912
89	102	101	2.604032395747
89	103	102	0.973
89	104	103	0.973
89	105	104	4.4758420601332
89	106	105	0.973
88	81	80	0.13041095095687
88	82	81	0.21544658462517
88	83	82	-0.34700946209487
88	84	83	-0.2232530871639
88	85	84	-0.018017292418516
88	86	85	0.2225552554708
88	87	86	-0.40302588464692
88	88	87	0.37420893388335
88	89	88	-0.20517260215711
88	90	89	0.35901988851838
88	91	90	-0.33670190395787
88	92	91	0.64631745635998
88	93	92	-0.2805742287077
88	94	93	-0.73171207164414
88	95	94	0.080123799759894
88	96	95	0.89487701777835
88	97	96	-0.22474040230736
88	98	97	0.20963729834184
88	99	98	-0.36867422543
88	100	99	-0.53712851533201
88	101	100	0.58374004426878
88	102	101	0.38979261291679
88	103	102	-0.36674068907741
88	104	103	-0.72875688944478
88	105	104	1.1653617897537
88	106	105	-0.77415167086292
85	80	79	9.4510664177499
85	81	80	9.5814773687068
85	82	81	9.7969239533319
85	83	82	9.4499144912371
85	84	83	9.2266614040732
85	85	84	9.2086441116547
85	86	85	9.4311993671255
85	87	86	9.0281734824785
85	88	87	9.4023824163619
85	89	88	9.1972098142048
85	90	89	9.5562297027231
85	91	90	9.2195277987653
85	92	91	9.8658452551253
85	93	92	9.5852710264175
85	94	93	8.8535589547734
85	95	94	8.9336827545333
85	96	95	9.8285597723116
85	97	96	9.6038193700043
85	98	97	9.8134566683461
85	99	98	9.4447824429161
85	100	99	8.9076539275841
85	101	100	9.4913939718529
85	102	101	9.8811865847697
85	103	102	9.5144458956923
85	104	103	8.7856890062475
85	105	104	9.9510507960012
85	106	105	9.1768991251382
83	79	78	68.133230370666
83	80	79	68.133230370666
83	81	80	68.102153727403
83	82	81	68.070648271726
83	83	82	68.038434392645
83	84	83	68.007361537104
83	85	84	67.977022774018
83	86	85	67.946743254719
83	87	86	67.915731937549
83	88	87	67.886045835026
83	89	88	67.855129272676
83	90	89	67.824887351207
83	91	90	68.748859827954
83	92	91	69.376234672515
83	93	92	69.364171279091
83	94	93	69.352450955847
83	95	94	69.341625328431
83	96	95	69.330701730199
83	97	96	69.318683927339
83	98	97	69.306940924237
83	99	98	69.294941588592
83	100	99	69.283393046783
83	101	100	69.272501275117
83	102	101	69.260895739386
83	103	102	69.248813587458
83	104	103	69.237179865148
83	105	104	69.226437225239
83	106	105	69.214269647334
82	79	78	30.099491829414
82	80	79	30.099491829414
82	81	80	39.549616530702
82	82	81	49.13013918863
82	83	82	58.926086963808
82	84	83	68.375059853362
82	85	84	77.600801900978
82	86	85	86.808528451442
82	87	86	96.238788081684
82	88	87	105.2660619853
82	89	88	114.66750753613
82	90	89	123.86380092848
82	91	90	133.35829223733
82	92	91	142.53941032841
82	93	92	152.40525558354
82	94	93	161.99052660996
82	95	94	170.84408556473
82	96	95	179.77776831926
82	97	96	189.60632809157
82	98	97	199.21014746158
82	99	98	209.02360412992
82	100	99	218.46838657284
82	101	100	227.37604050042
82	102	101	236.86743447228
82	103	102	246.74862105705
82	104	103	256.26306695274
82	105	104	265.04875595899
82	106	105	274.99980675499
vector 110 RSUExampleScenario.node[22].veinsmobility posx ETV
vector 111 RSUExampleScenario.node[22].veinsmobility posy ETV
vector 112 RSUExampleScenario.node[23].veinsmobility posx ETV
vector 113 RSUExampleScenario.node[23].veinsmobility posy ETV
87	81	80	0.973
87	82	81	3.494760700975
87	83	82	2.4820425556292
87	84	83	0.973
87	85	84	0.973
87	86	85	0.973
87	87	86	0.973
87	88	87	0.973
87	89	88	0.973
87	90	89	1.1129354470154
87	91	90	1.1103498459014
87	92	91	1.1100614096067
87	93	92	2.5362312880018
87	94	93	2.6860012898128
87	95	94	4.3296559121856
87	96	95	5.8195215685866
87	97	96	7.7881438167998
87	98	97	5.6576856966851
87	99	98	9.410099402709
87	100	99	1.5940452138219
87	101	100	0.973
87	102	101	0.973
87	103	102	1.2213954637311
87	104	103	0.973
87	105	104	0.973
87	106	105	4.9377577311077
87	107	106	2.0109284971518
87	108	107	7.1132804778739
86	81	80	-0.44250450897962
86	82	81	0.41318015784491
86	83	82	0.11496971789747
86	84	83	-1.1538126295255
86	85	84	-4.5
86	86	85	-4.4287094499916
86	87	86	-2.9498164492355
86	88	87	-0.90102547869341
86	89	88	-0.37206235841557
86	90	89	-0.038406651829696
86	91	90	-0.064590495610717
86	92	91	-0.0093717315995839
86	93	92	2.3329665578669
86	94	93	1.4997958063148
86	95	94	2.0550471252296
86	96	95	2.1927444331115
86	97	96	2.4010632723104
86	98	97	1.3420164818643
86	99	98	2.1831996590365
86	100	99	-0.12928610356132
86	101	100	-0.35390097737201
86	102	101	-0.87078716373696
86	103	102	-0.22222862604797
86	104	103	-1.1268368346944
86	105	104	-2.4686845964008
86	106	105	1.3235378717972
86	107	106	0.12285054015715
86	108	107	1.8046316351742
84	80	79	14.333485409234
84	81	80	13.890980900255
84	82	81	14.3041610581
84	83	82	14.419130775997
84	84	83	13.265318146472
84	85	84	8.7653181464716
84	86	85	4.3366086964801
84	87	86	1.3867922472445
84	88	87	0.48576676855111
84	89	88	0.11370441013553
84	90	89	0.075297758305839
84	91	90	0.010707262695122
84	92	91	0.0013355310955379
84	93	92	2.3343020889624
84	94	93	3.8340978952772
84	95	94	5.8891450205068
84	96	95	8.0818894536184
84	97	96	10.482952725929
84	98	97	11.824969207793
84	99	98	14.00816886683
84	100	99	13.878882763268
84	101	100	13.524981785896
84	102	101	12.654194622159
84	103	102	12.431965996111
84	104	103	11.305129161417
84	105	104	8.836444565016
84	106	105	10.159982436813
84	107	106	10.28283297697
84	108	107	12.087464612144
81	79	78	28.571856717077
81	80	79	28.571856717077
81	81	80	34.535308147412
81	82	81	40.314655427803
81	83	82	46.265906451975
81	84	83	52.264990665987
81	85	84	57.784030747017
81	86	85	61.430844312979
81	87	86	63.235091821207
81	88	87	63.812067202581
81	89	88	64.014170630185
81	90	89	64.061477388304
81	91	90	64.092805045999
81	92	91	64.097259806248
81	93	92	64.09781545441
81	94	93	65.157741132161
81	95	94	66.944515246933
81	96	95	69.013262830985
81	97	96	69.373155033744
81	98	97	69.360337076468
81	99	98	69.345878177905
81	100	99	69.328749787198
81	101	100	69.311779480171
81	102	101	69.295241903095
81	103	102	69.279769074944
81	104	103	69.264567975296
81	105	104	69.250744707521
81	106	105	69.239940006606
81	107	106	69.227516958997
81	108	107	69.214943696746
80	79	78	48.407796666299
80	80	79	48.407796666299
80	81	80	61.442265459904
80	82	81	74.074333089477
80	83	82	87.082135142311
80	84	83	100.19448742542
80	85	84	112.25759493073
80	86	85	120.22852890696
80	87	86	124.17211897668
80	88	87	125.43322887102
80	89	88	125.87497151803
80	90	89	125.97837111299
80	91	90	126.04684477817
80	92	91	126.05658166194
80	93	92	126.05779615639
80	94	93	128.13730516931
80	95	94	131.52912493434
80	96	95	137.00355292452
80	97	96	145.0580415694
80	98	97	155.54099429533
80	99	98	167.36596350312
80	100	99	181.37413236995
80	101	100	195.25301513322
80	102	101	208.77799691912
80	103	102	221.43219154128
80	104	103	233.86415753739
80	105	104	245.1692866988
80	106	105	254.00573126382
80	107	106	264.16571370063
80	108	107	274.4485466776
vector 114 RSUExampleScenario.node[22].veinsmobility speed ETV
vector 115 RSUExampleScenario.node[23].veinsmobility speed ETV
99	91	90	1.1696632925053
99	92	91	0.973
99	93	92	3.4547679552302
99	94	93	3.7874457409831
99	95	94	1.7515978908269
99	96	95	1.9805809503127
99	97	96	0.973
99	98	97	4.4393010774488
99	99	98	1.8628786962651
99	100	99	1.2884032715939
99	101	100	3.0432894113113
99	102	101	2.5291127415426
99	103	102	0.973
99	104	103	2.9367817090216
99	105	104	1.4416500657205
99	106	105	0.973
99	107	106	6.4628840260195
99	108	107	0.973
99	109	108	2.4987207013425
98	91	90	-0.23479008660652
98	92	91	-0.25637890757062
98	93	92	0.53410215827171
98	94	93	0.59867519875988
98	95	94	-0.055657945200801
98	96	95	0.017853969708085
98	97	96	-1.1480218763072
98	98	97	0.84145987008972
98	99	98	-0.010919302538968
98	100	99	-0.19837446508464
98	101	100	0.3697911833413
98	102	101	0.19293536865152
98	103	102	-1.0268849801971
98	104	103	0.36250892621465
98	105	104	-0.1422588404268
98	106	105	-0.93373517729339
98	107	106	1.4950077598881
98	108	107	-0.81816024252904
98	109	108	0.22239760248078
95	90	89	12.240031209896
95	91	90	12.00524112329
95	92	91	11.748862215719
95	93	92	12.282964373991
95	94	93	12.88163957275
95	95	94	12.82598162755
95	96	95	12.843835597258
95	97	96	11.695813720951
95	98	97	12.53727359104
95	99	98	12.526354288501
95	100	99	12.327979823417
95	101	100	12.697771006758
95	102	101	12.89070637541
95	103	102	11.863821395212
95	104	103	12.226330321427
95	105	104	12.084071481
95	106	105	11.150336303707
95	107	106	12.645344063595
95	108	107	11.827183821066
95	109	108	12.049581423547
93	89	88	68.133230370666
93	90	89	68.133230370666
93	91	90	68.09298315764
93	92	91	68.053507972599
93	93	92	68.014875803097
93	94	93	67.974487418847
93	95	94	67.932130493189
93	96	95	67.889956579906
93	97	96	67.847723959867
93	98	97	68.035950755297
93	99	98	69.378053829591
93	100	99	69.362737317317
93	101	100	69.347663366035
93	102	101	69.332137255165
93	103	102	69.316375233919
93	104	103	69.301868829115
93	105	104	69.286919169053
93	106	105	69.272143454994
93	107	106	69.258509459106
93	108	107	69.243047452914
93	109	108	69.228585846449
92	89	88	30.099491829414
92	90	89	30.099491829414
92	91	90	42.338303426794
92	92	91	54.342348332355
92	93	92	66.090039876271
92	94	93	78.37178035983
92	95	94	91.252136389378
92	96	95	104.07684001956
92	97	96	116.91939584045
92	98	97	128.60725722573
92	99	98	141.05164303244
92	100	99	153.57799732095
92	101	100	165.90597714436
92	102	101	178.60374815112
92	103	102	191.49445452653
92	104	103	203.35827592174
92	105	104	215.58460624317
92	106	105	227.66867772417
92	107	106	238.81901402788
92	108	107	251.46435809147
92	109	108	263.29154191254
vector 116 RSUExampleScenario.node[22].veinsmobility acceleration ETV
vector 117 RSUExampleScenario.node[22].veinsmobility co2emission ETV
vector 118 RSUExampleScenario.node[23].veinsmobility acceleration ETV
vector 119 RSUExampleScenario.node[23].veinsmobility co2emission ETV
97	91	90	4.1744842415109
97	92	91	3.609178825045
97	93	92	0.973
97	94	93	0.973
97	95	94	0.973
97	96	95	0.973
97	97	96	0.973
97	98	97	0.973
97	99	98	2.1731901799708
97	100	99	2.9699802123653
97	101	100	4.1653580705499
97	102	101	6.2204926146953
97	103	102	7.7509403344496
97	104	103	6.1110187082558
97	105	104	8.6275240669546
97	106	105	4.6548250469419
97	107	106	2.2413687093384
97	108	107	3.7839564766913
97	109	108	0.973
97	110	109	3.7328798407684
97	111	110	0.973
97	112	111	5.8201392350142
96	91	90	0.56823393662926
96	92	91	0.38860199877527
96	93	92	-1.1830784036379
96	94	93	-2.6653555823585
96	95	94	-2.3559954299423
96	96	95	-4.3773980041399
96	97	96	-3.8118913126574
96	98	97	-0.27337074041716
96	99	98	1.6995761287399
96	100	99	1.7092146491166
96	101	100	1.9180873884819
96	102	101	2.3342120763147
96	103	102	2.3487891986966
96	104	103	1.4601692862576
96	105	104	1.9465575053822
96	106	105	0.71362096776694
96	107	106	0.033594249235465
96	108	107	0.43980916349683
96	109	108	-0.81795669938438
96	110	109	0.44796088933945
96	111	110	-0.69572193927597
96	112	111	1.001023023366
94	90	89	14.330356994604
94	91	90	14.898590931234
94	92	91	15.287192930009
94	93	92	14.104114526371
94	94	93	11.438758944013
94	95	94	9.0827635140702
94	96	95	4.7053655099303
94	97	96	0.89347419727293
94	98	97	0.62010345685576
94	99	98	2.3196795855956
94	100	99	4.0288942347122
94	101	100	5.9469816231942
94	102	101	8.2811936995089
94	103	102	10.629982898206
94	104	103	12.090152184463
94	105	104	14.036709689845
94	106	105	14.750330657612
94	107	106	14.783924906848
94	108	107	15.223734070345
94	109	108	14.40577737096
94	110	109	14.8537382603
94	111	110	14.158016321024
94	112	111	15.15903934439
91	89	88	28.571856717077
91	90	89	28.571856717077
91	91	90	34.534006569452
91	92	91	40.732570342475
91	93	92	47.092812107924
91	94	93	52.960833705219
91	95	94	57.719933215097
91	96	95	61.498820033127
91	97	96	63.456488937744
91	98	97	63.828219178336
91	99	98	64.086213430338
91	100	99	65.138366067151
91	101	100	67.016458714694
91	102	101	69.044287437273
91	103	102	69.372654407808
91	104	103	69.359656670415
91	105	104	69.344873521219
91	106	105	69.327710232419
91	107	106	69.309674368562
91	108	107	69.291597427572
91	109	108	69.272982712996
91	110	109	69.255368149266
91	111	110	69.237205844484
91	112	111	69.219894228848
90	89	88	48.407796666299
90	90	89	48.407796666299
90	91	90	61.439420567563
90	92	91	74.987780440783
90	93	92	88.889524050168
90	94	93	101.71540940929
90	95	94	112.11749531068
90	96	95	120.37710518251
90	97	96	124.65603233461
90	98	97	125.46853265883
90	99	98	126.03243731471
90	100	99	128.09947220213
90	101	100	131.66333526308
90	102	101	137.21135924966
90	103	102	145.46747014737
90	104	103	156.09745304558
90	105	104	168.18760523004
90	106	105	182.22431491988
90	107	106	196.9746455775
90	108	107	211.75857048434
90	109	108	226.98230455469
90	110	109	241.38808192565
90	111	110	256.24182018595
90	112	111	270.39983650697
vector 120 RSUExampleScenario.node[24].veinsmobility posx ETV
vector 121 RSUExampleScenario.node[24].veinsmobility posy ETV
vector 122 RSUExampleScenario.node[25].veinsmobility posx ETV
vector 123 RSUExampleScenario.node[25].veinsmobility posy ETV
vector 124 RSUExampleScenario.node[24].veinsmobility speed ETV
vector 125 RSUExampleScenario.node[25].veinsmobility speed ETV
vector 126 RSUExampleScenario.node[24].veinsmobility acceleration ETV
vector 127 RSUExampleScenario.node[24].veinsmobility co2emission ETV
vector 128 RSUExampleScenario.node[25].veinsmobility acceleration ETV
vector 129 RSUExampleScenario.node[25].veinsmobility co2emission ETV
109	100	99	1.378697367625
109	101	100	3.4753859190944
109	102	101	1.8525410267416
109	103	102	2.9140812777422
109	104	103	0.973
109	105	104	1.4063434639993
109	106	105	4.255562380054
109	107	106	1.936618004731
109	108	107	1.3754501771417
109	109	108	0.973
109	110	109	1.3439373700453
109	111	110	1.7214019377639
109	112	111	5.075790237684
109	113	112	0.973
109	114	113	0.973
109	115	114	1.8260223118787
109	116	115	0.973
109	117	116	1.7936166530598
109	118	117	5.4503347549073
109	119	118	1.9658928911944
109	120	119	0.973
108	100	99	-0.14595106407069
108	101	100	0.59153276337311
108	102	101	0.012372770509682
108	103	102	0.36755997741129
108	104	103	-0.87392518108245
108	105	104	-0.13487010265235
108	106	105	0.84714842620306
108	107	106	0.034211027808487
108	108	107	-0.15897664749064
108	109	108	-0.46388693740591
108	110	109	-0.16001504091546
108	111	110	-0.018430376239122
108	112	111	1.094011488324
108	113	112	-0.48795234048739
108	114	113	-0.38675516294315
108	115	114	0.013225482567215
108	116	115	-0.29690664201044
108	117	116	0.010311505384744
108	118	117	1.2131429386558
108	119	118	0.031355799268932
108	120	119	-0.68551474916749
105	99	98	11.189120370098
105	100	99	11.043169306027
105	101	100	11.6347020694
105	102	101	11.64707483991
105	103	102	12.014634817321
105	104	103	11.140709636239
105	105	104	11.005839533586
105	106	105	11.852987959789
105	107	106	11.887198987598
105	108	107	11.728222340107
105	109	108	11.264335402701
105	110	109	11.104320361786
105	111	110	11.085889985547
105	112	111	12.179901473871
105	113	112	11.691949133383
105	114	113	11.30519397044
105	115	114	11.318419453007
105	116	115	11.021512810997
105	117	116	11.031824316382
105	118	117	12.244967255037
105	119	118	12.276323054306
105	120	119	11.590808305139
103	98	97	68.133230370666
103	99	98	68.133230370666
103	100	99	68.096438723375
103	101	100	68.060126986916
103	102	101	68.021870194539
103	103	102	67.983572718482
103	104	103	67.944066645447
103	105	104	67.907434180521
103	106	105	67.871245190425
103	107	106	67.832270638544
103	108	107	68.762127654221
103	109	108	69.373062572007
103	110	109	69.359289184517
103	111	110	69.345711454301
103	112	111	69.332156259698
103	113	112	69.317263370185
103	114	113	69.30296712099
103	115	114	69.28914377397
103	116	115	69.275304255585
103	117	116	69.261827777723
103	118	117	69.248338691541
103	119	118	69.233366243297
103	120	119	69.218355454969
102	98	97	30.099491829414
102	99	98	30.099491829414
102	100	99	41.287497301109
102	101	100	52.329566251486
102	102	101	63.963109024147
102	103	102	75.609023334479
102	104	103	87.622460998072
102	105	104	98.762060559616
102	106	105	109.76680345714
102	107	106	121.6186103699
102	108	107	133.44281320467
102	109	108	145.13365986007
102	110	109	156.39799526278
102	111	110	167.50231562456
102	112	111	178.58820561011
102	113	112	190.76810708398
102	114	113	202.46005621736
102	115	114	213.7652501878
102	116	115	225.08366964081
102	117	116	236.10518245181
102	118	117	247.13700676819
102	119	118	259.38197402322
102	120	119	271.65829707753
107	100	99	2.4300051602099
107	101	100	2.6744122298408
107	102	101	1.314977270235
107	103	102	0.973
107	104	103	0.973
107	105	104	0.973
107	106	105	0.973
107	107	106	0.973
107	108	107	1.8247773196367
107	109	108	3.1072025767483
107	110	109	3.1919394536894
107	111	110	5.6571642318477
107	112	111	4.5338785346878
107	113	112	6.5737574107894
107	114	113	10.265808997575
107	115	114	10.871448687688
107	116	115	1.9091670036478
107	117	116	0.973
107	118	117	0.973
107	119	118	3.9022150812024
107	120	119	0.973
107	121	120	0.973
107	122	121	11.038789301465
106	100	99	0.048990620300174
106	101	100	0.10884149181657
106	102	101	-0.24080540093957
106	103	102	-4.5
106	104	103	-4.2288378126919
106	105	104	-4.1289240787737
106	106	105	-2.114748362724
106	107	106	-0.60351085571461
106	108	107	1.5491290971171
106	109	108	2.0235112381168
106	110	109	1.4584473318886
106	111	110	2.3015496139415
106	112	111	1.3746383878635
106	113	112	1.8700909966836
106	114	113	2.5864453264745
106	115	114	2.3011340299854
106	116	115	-0.079117406506176
106	117	116	-1.3376286475726
106	118	117	-1.5365534442332
106	119	118	0.60596896794666
106	120	119	-0.41727980842317
106	121	120	-1.0092007648063
106	122	121	2.5782670401735
104	99	98	15.804271433971
104	100	99	15.853262054271
104	101	100	15.962103546088
104	102	101	15.721298145148
104	103	102	11.221298145148
104	104	103	6.9924603324562
104	105	104	2.8635362536825
104	106	105	0.74878789095851
104	107	106	0.1452770352439
104	108	107	1.694406132361
104	109	108	3.7179173704778
104	110	109	5.1763647023664
104	111	110	7.4779143163078
104	112	111	8.8525527041714
104	113	112	10.722643700855
104	114	113	13.309089027329
104	115	114	15.610223057315
104	116	115	15.531105650809
104	117	116	14.193477003236
104	118	117	12.656923559003
104	119	118	13.26289252695
104	120	119	12.845612718526
104	121	120	11.83641195372
104	122	121	14.414678993894
101	98	97	28.571856717077
101	99	98	28.571856717077
101	100	99	35.14722916819
101	101	100	41.742984183374
101	102	101	48.384022737873
101	103	102	54.924874124236
101	104	103	59.593498995531
101	105	104	62.502714471083
101	106	105	63.694089693528
101	107	106	64.005623147665
101	108	107	64.06606570709
101	109	108	64.831299476788
101	110	109	66.551279798263
101	111	110	68.686600770564
101	112	111	69.375782884828
101	113	112	69.364958487798
101	114	113	69.351847450055
101	115	114	69.335573854342
101	116	115	69.316486563055
101	117	116	69.297496012025
101	118	117	69.280141037087
101	119	118	69.264664872149
101	120	119	69.248447762884
101	121	120	69.232740879592
101	122	121	69.218267989492
100	98	97	48.407796666299
100	99	98	48.407796666299
100	100	99	62.779756934877
100	101	100	77.196267896693
100	102	101	91.711756252214
100	103	102	106.00826294387
100	104	103	116.21259610644
100	105	104	122.57134301215
100	106	105	125.17536240257
100	107	106	125.85628906619
100	108	107	125.98839991908
100	109	108	127.49987471799
100	110	109	130.79554535465
100	111	110	135.50212558759
100	112	111	142.90889735848
100	113	112	151.76145006265
100	114	113	162.48409376351
100	115	114	175.79318279084
100	116	115	191.40340584815
100	117	116	206.93451149896
100	118	117	221.1279885022
100	119	118	233.7849120612
100	120	119	247.04780458815
100	121	120	259.89341730667
100	122	121	271.72982926039
vector 130 RSUExampleScenario.node[26].veinsmobility posx ETV
vector 131 RSUExampleScenario.node[26].veinsmobility posy ETV
vector 132 RSUExampleScenario.node[27].veinsmobility posx ETV
vector 133 RSUExampleScenario.node[27].veinsmobility posy ETV
vector 134 RSUExampleScenario.node[26].veinsmobility speed ETV
vector 135 RSUExampleScenario.node[27].veinsmobility speed ETV
vector 136 RSUExampleScenario.node[26].veinsmobility acceleration ETV
vector 137 RSUExampleScenario.node[26].veinsmobility co2emission ETV
vector 138 RSUExampleScenario.node[27].veinsmobility acceleration ETV
vector 139 RSUExampleScenario.node[27].veinsmobility co2emission ETV
119	110	109	2.6632553172812
119	111	110	0.973
119	112	111	0.973
119	113	112	2.8207178019134
119	114	113	1.9396796166184
119	115	114	0.973
119	116	115	2.6173771512989
119	117	116	1.456886178407
119	118	117	2.5118500663589
119	119	118	1.6129831673312
119	120	119	0.973
119	121	120	2.352496377133
119	122	121	2.0360909862125
119	123	122	1.2569327727991
119	124	123	2.1630836363004
119	125	124	1.321533983356
119	126	125	3.2415024388268
119	127	126	0.973
119	128	127	3.2325780587851
119	129	128	0.973
119	130	129	2.3688859065634
119	131	130	1.8473880161205
119	132	131	0.973
119	133	132	3.4171750224362
119	134	133	0.973
118	110	109	0.40093424348161
118	111	110	-0.21945663117804
118	112	111	-0.49611811703071
118	113	112	0.48415642962791
118	114	113	0.10799345555715
118	115	114	-0.54974895906635
118	116	115	0.40133170539048
118	117	116	-0.088090190500951
118	118	117	0.33986020006705
118	119	118	-0.030369757348671
118	120	119	-0.77250991545152
118	121	120	0.30457487404347
118	122	121	0.15935664719436
118	123	122	-0.17115253657103
118	124	123	0.21145463953726
118	125	124	-0.14419400549959
118	126	125	0.62409594373312
118	127	126	-0.43838914195076
118	128	127	0.60533735963982
118	129	128	-0.81297879379708
118	130	129	0.29129173671827
118	131	130	0.069518983084707
118	132	131	-0.47619856083766
118	133	132	0.70133346787188
118	134	133	-0.75649203825742
115	109	108	9.6698218514074
115	110	109	10.070756094889
115	111	110	9.8512994637109
115	112	111	9.3551813466802
115	113	112	9.8393377763081
115	114	113	9.9473312318653
115	115	114	9.3975822727989
115	116	115	9.7989139781894
115	117	116	9.7108237876885
115	118	117	10.050683987756
115	119	118	10.020314230407
115	120	119	9.2478043149553
115	121	120	9.5523791889988
115	122	121	9.7117358361931
115	123	122	9.5405832996221
115	124	123	9.7520379391594
115	125	124	9.6078439336598
115	126	125	10.231939877393
115	127	126	9.7935507354421
115	128	127	10.398888095082
115	129	128	9.5859093012849
115	130	129	9.8772010380031
115	131	130	9.9467200210879
115	132	131	9.4705214602502
115	133	132	10.171854928122
115	134	133	9.4153628898647
113	108	107	68.133230370666
113	109	108	68.133230370666
113	110	109	68.101434423964
113	111	110	68.068320140272
113	112	111	68.035927465671
113	113	112	68.005166108114
113	114	113	67.972812765485
113	115	114	67.940104322814
113	116	115	67.909203544117
113	117	116	67.87698312151
113	118	117	67.845052353775
113	119	118	67.980868531101
113	120	119	69.263383763435
113	121	120	69.370841837779
113	122	121	69.359161732799
113	123	122	69.347286775592
113	124	123	69.335621093954
113	125	124	69.323696857631
113	126	125	69.311948933522
113	127	126	69.299437900454
113	128	127	69.28746290465
113	129	128	69.274747736814
113	130	129	69.263026633124
113	131	130	69.250949354496
113	132	131	69.238787072016
113	133	132	69.227207058003
113	134	133	69.214769493388
112	108	107	30.099491829414
112	109	108	30.099491829414
112	110	109	39.768350167285
112	111	110	49.838102799032
112	112	111	59.688420666543
112	113	112	69.042669850873
112	114	113	78.881027222859
112	115	114	88.827367289795
112	116	115	98.22401317536
112	117	116	108.02195077711
112	118	117	117.73180696577
112	119	118	127.77643367744
112	120	119	137.70589744167
112	121	120	146.94985033666
112	122	121	156.50222952565
112	123	122	166.21396536185
112	124	123	175.75454866147
112	125	124	185.50658660063
112	126	125	195.11443053429
112	127	126	205.34637041168
112	128	127	215.13992114712
112	129	128	225.53880924221
112	130	129	235.12471854349
112	131	130	245.00191958149
112	132	131	254.94863960258
112	133	132	264.41916106283
112	134	133	274.59101599095
117	110	109	3.5772765109635
117	111	110	1.7444207134292
117	112	111	0.973
117	113	112	2.6699652778283
117	114	113	0.973
117	115	114	0.973
117	116	115	0.973
117	117	116	0.973
117	118	117	0.973
117	119	118	1.1125416472807
117	120	119	1.1103578611471
117	121	120	2.7704202282392
117	122	121	4.5167618838415
117	123	122	4.6936419540221
117	124	123	6.0212420732012
117	125	124	7.8870100021763
117	126	125	6.0647557859252
117	127	126	3.1351307809567
117	128	127	2.4326643623347
117	129	128	0.973
117	130	129	0.973
117	131	130	0.973
117	132	131	0.973
117	133	132	2.7083425417485
117	134	133	0.973
117	135	134	0.973
117	136	135	6.3507097471182
116	110	109	0.48476464780979
116	111	110	-0.074510260764509
116	112	111	-0.61124306942802
116	113	112	0.22834797729738
116	114	113	-2.7911581675689
116	115	114	-3.9876853146474
116	116	115	-4.3185489557218
116	117	116	-1.497752935697
116	118	117	-0.38303031458695
116	119	118	-0.048496421603324
116	120	119	-0.059013719170412
116	121	120	2.5200123925461
116	122	121	2.5643961252412
116	123	122	1.9052619206253
116	124	123	2.026257085125
116	125	124	2.2457871004241
116	126	125	1.3654303732561
116	127	126	0.38036581162994
116	128	127	0.15014694483235
116	129	128	-0.99437580773446
116	130	129	-0.72048084563771
116	131	130	-0.46915585879988
116	132	131	-0.76047563697557
116	133	132	0.38205173911762
116	134	133	-0.2310844394937
116	135	134	-0.50030443569644
116	136	135	1.637941844319
114	109	108	13.068846384219
114	110	109	13.553611032029
114	111	110	13.479100771265
114	112	111	12.867857701837
114	113	112	13.096205679134
114	114	113	10.305047511565
114	115	114	6.3173621969177
114	116	115	1.9988132411959
114	117	116	0.50106030549896
114	118	117	0.11802999091201
114	119	118	0.069533569308687
114	120	119	0.010519850138275
114	121	120	2.5305322426843
114	122	121	5.0949283679255
114	123	122	7.0001902885509
114	124	123	9.0264473736758
114	125	124	11.2722344741
114	126	125	12.637664847356
114	127	126	13.018030658986
114	128	127	13.168177603818
114	129	128	12.173801796084
114	130	129	11.453320950446
114	131	130	10.984165091646
114	132	131	10.223689454671
114	133	132	10.605741193788
114	134	133	10.374656754295
114	135	134	9.8743523185981
114	136	135	11.512294162917
111	108	107	28.571856717077
111	109	108	28.571856717077
111	110	109	34.009154655274
[...]
646	629	628	1.8969753509155
646	630	629	2.4459850604879
646	631	630	2.1331688891631
646	632	631	1.7723604921252
646	633	632	2.2162810605238
646	634	633	-0.47558766182046
646	635	634	-0.59290965788532
646	636	635	0.12214886744041
646	637	636	0.55566889995243
646	638	637	0.24713714597747
646	639	638	-0.46256377068348
644	618	617	14.955236825446
644	619	618	14.492469156004
644	620	619	14.278909203858
644	621	620	14.289684594545
644	622	621	13.008384452338
644	623	622	9.1717617620371
644	624	623	4.6717617620371
644	625	624	0.40832056618089
644	626	625	1.7515712862208
644	627	626	3.2035081730762
644	628	627	4.6290856863212
644	629	628	6.5260610372366
644	630	629	8.9720460977245
644	631	630	11.105214986888
644	632	631	12.877575479013
644	633	632	15.093856539537
644	634	633	14.618268877716
644	635	634	14.025359219831
644	636	635	14.147508087271
644	637	636	14.703176987224
644	638	637	14.950314133201
644	639	638	14.487750362518
641	617	616	28.571856717077
641	618	617	28.571856717077
641	619	618	34.793988033459
641	620	619	40.823584705164
641	621	620	46.764329686878
641	622	621	52.709557773514
641	623	622	58.121700504595
641	624	623	61.937615073655
641	625	624	63.881303127648
641	626	625	64.051185036682
641	627	626	64.841052795654
641	628	627	66.318372726027
641	629	628	68.299765149858
641	630	629	69.378218763597
641	631	630	69.367248256854
641	632	631	69.353669432741
641	633	632	69.337923467207
641	634	633	69.319467559476
641	635	634	69.301593173239
641	636	635	69.284443763147
641	637	636	69.267144996381
641	638	637	69.249166789345
641	639	638	69.230886397089
640	617	616	48.407796666299
640	618	617	48.407796666299
640	619	618	62.007668723703
640	620	619	75.186712868438
640	621	620	88.17155159472
640	622	621	101.16618915845
640	623	622	112.99564838335
640	624	623	121.33619076062
640	625	624	125.5845596088
640	626	625	125.95587485598
640	627	626	127.51891966015
640	628	627	130.36105789241
640	629	628	134.53651300766
640	630	629	140.9167545053
640	631	630	149.88880060303
640	632	631	160.99401558991
640	633	632	173.87159106893
640	634	633	188.96544760846
640	635	634	203.58371648618
640	636	635	217.60907570601
640	637	636	231.75658379328
640	638	637	246.4597607805
640	639	638	261.4100749137
659	628	627	0.973
659	629	628	4.9333208771793
659	630	629	0.973
659	631	630	1.4223884637251
659	632	631	2.78017461607
659	633	632	2.5238372185148
659	634	633	0.973
659	635	634	0.973
659	636	635	4.6863025964163
659	637	636	0.973
659	638	637	6.7656211249536
659	639	638	0.973
659	640	639	4.1588449639815
659	641	640	0.973
659	642	641	2.9044952825204
659	643	642	3.5036095023473
658	628	627	-0.34305852830876
658	629	628	0.77980329939164
658	630	629	-0.34475073772482
658	631	630	-0.18897997245658
658	632	631	0.1946880141506
658	633	632	0.11709192094859
658	634	633	-0.41025786120445
658	635	634	-0.4534779246198
658	636	635	0.73867203134578
658	637	636	-0.7651089563733
658	638	637	1.2716795162065
658	639	638	-0.83632892386522
658	640	639	0.57132097191643
658	641	640	-0.49294095791411
658	642	641	0.23142000238877
658	643	642	0.38076929172967
655	627	626	14.4591051225
655	628	627	14.116046594192
655	629	628	14.895849893583
655	630	629	14.551099155858
655	631	630	14.362119183402
655	632	631	14.556807197552
655	633	632	14.673899118501
655	634	633	14.263641257296
655	635	634	13.810163332677
655	636	635	14.548835364022
655	637	636	13.783726407649
655	638	637	15.055405923856
655	639	638	14.21907699999
655	640	639	14.790397971907
655	641	640	14.297457013993
655	642	641	14.528877016382
655	643	642	14.909646308111
653	626	625	68.133230370666
653	627	626	68.133230370666
653	628	627	68.085686481761
653	629	628	68.039270625085
653	630	629	67.990290648352
653	631	630	67.942444268107
653	632	631	67.895219284741
653	633	632	67.847354135527
653	634	633	68.482905245032
653	635	634	69.372163968792
653	636	635	69.35527768797
653	637	636	69.337488201077
653	638	637	69.32063424582
653	639	638	69.30222535331
653	640	639	69.284839076155
653	641	640	69.266754220269
653	642	641	69.249272104499
653	643	642	69.231507021537
652	626	625	30.099491829414
652	627	626	30.099491829414
652	628	627	44.557156228008
652	629	628	58.671796281088
652	630	629	73.566161932952
652	631	630	88.1158111985
652	632	631	102.4764993218
652	633	632	117.03185606029
652	634	633	131.66406304243
652	635	634	145.86856752288
652	636	635	159.67873085556
652	637	636	174.22756621958
652	638	637	188.01129262723
652	639	638	203.06669855109
652	640	639	217.28577555108
652	641	640	232.07617352299
652	642	641	246.37363053698
652	643	642	260.90250755336
vector 670 RSUExampleScenario.node[134].veinsmobility posx ETV
vector 671 RSUExampleScenario.node[134].veinsmobility posy ETV
vector 672 RSUExampleScenario.node[135].veinsmobility posx ETV
vector 673 RSUExampleScenario.node[135].veinsmobility posy ETV
657	628	627	2.2031623399837
657	629	628	1.6332144652258
657	630	629	0.973
657	631	630	5.0886010939385
657	632	631	0.973
657	633	632	0.973
657	634	633	5.7185190882556
657	635	634	8.0171782924177
657	636	635	5.7208986817212
657	637	636	6.3842934650748
657	638	637	0.973
657	639	638	2.6535415862071
657	640	639	1.6092013686049
657	641	640	3.2998928699836
657	642	641	3.2060634159851
657	643	642	0.973
657	644	643	3.2730816906648
657	645	644	0.973
657	646	645	1.1621460758339
656	628	627	0.062565412046389
656	629	628	-0.10894377883524
656	630	629	-0.76002200250514
656	631	630	0.93641163425055
656	632	631	-3.855263971381
656	633	632	-3.5479686753824
656	634	633	2.0688332026359
656	635	634	2.4212828865275
656	636	635	1.3278191827584
656	637	636	1.3591641343617
656	638	637	-0.87555925445503
656	639	638	0.23739348095713
656	640	639	-0.098918685154059
656	641	640	0.42598127177916
656	642	641	0.37414376358502
656	643	642	-0.88967445564922
656	644	643	0.4232710765209
656	645	644	-0.42166166880634
656	646	645	-0.24134919135831
654	627	626	13.534457598258
654	628	627	13.597023010304
654	629	628	13.488079231469
654	630	629	12.728057228964
654	631	630	13.664468863214
654	632	631	9.8092048918334
654	633	632	6.261236216451
654	634	633	8.3300694190869
654	635	634	10.751352305614
654	636	635	12.079171488373
654	637	636	13.438335622734
654	638	637	12.562776368279
654	639	638	12.800169849237
654	640	639	12.701251164082
654	641	640	13.127232435862
654	642	641	13.501376199447
654	643	642	12.611701743797
654	644	643	13.034972820318
654	645	644	12.613311151512
654	646	645	12.371961960154
651	626	625	28.571856717077
651	627	626	28.571856717077
651	628	627	34.202872357637
651	629	628	39.859918358944
651	630	629	45.471638264386
651	631	630	50.767150759801
651	632	631	56.452257630919
651	633	632	60.533380628747
651	634	633	63.138370064645
651	635	634	66.876293060187
651	636	635	69.37726845474
651	637	636	69.362498732113
651	638	637	69.346067101028
651	639	638	69.330706053909
651	640	639	69.315054735569
651	641	640	69.299524369361
651	642	641	69.283473137525
651	643	642	69.266964424015
651	644	643	69.251543553735
651	645	644	69.235605131701
651	646	645	69.220182293529
650	626	625	48.407796666299
650	627	626	48.407796666299
650	628	627	60.715652024997
650	629	628	73.080402611031
650	630	629	85.34608278642
650	631	630	96.92062031288
650	632	631	109.34670426201
650	633	632	118.2669195064
650	634	633	123.9607117518
650	635	634	131.40185664444
650	636	635	141.69394876519
650	637	636	153.77312025357
650	638	637	167.2114558763
650	639	638	179.77423224458
650	640	639	192.57440209382
650	641	640	205.2756532579
650	642	641	218.40288569376
650	643	642	231.90426189321
650	644	643	244.51596363701
650	645	644	257.55093645732
650	646	645	270.16424760884
vector 674 RSUExampleScenario.node[134].veinsmobility speed ETV
vector 675 RSUExampleScenario.node[135].veinsmobility speed ETV
vector 676 RSUExampleScenario.node[134].veinsmobility acceleration ETV
vector 677 RSUExampleScenario.node[134].veinsmobility co2emission ETV
vector 678 RSUExampleScenario.node[135].veinsmobility acceleration ETV
vector 679 RSUExampleScenario.node[135].veinsmobility co2emission ETV
669	638	637	5.6731012951264
669	639	638	0.973
669	640	639	7.6181198284152
669	641	640	1.5908515508795
669	642	641	2.7593237841657
669	643	642	2.3786755843318
669	644	643	0.973
669	645	644	3.6836663244454
669	646	645	3.6269350120614
669	647	646	4.6732578277745
669	648	647	0.973
669	649	648	1.7358406517577
669	650	649	2.0616355925256
668	638	637	0.72664945474826
668	639	638	-1.0371752646985
668	640	639	1.1626070842147
668	641	640	-0.21202912707813
668	642	641	0.056469929870218
668	643	642	-0.030448977136984
668	644	643	-0.78943933930714
668	645	644	0.29476070189849
668	646	645	0.26858878850471
668	647	646	0.48464754854795
668	648	647	-1.0014928472461
668	649	648	-0.15927584529854
668	650	649	-0.077906838245688
665	637	636	17.285554060296
665	638	637	18.012203515044
665	639	638	16.975028250346
665	640	639	18.13763533456
665	641	640	17.925606207482
665	642	641	17.982076137353
665	643	642	17.951627160216
665	644	643	17.162187820908
665	645	644	17.456948522807
665	646	645	17.725537311312
665	647	646	18.21018485986
665	648	647	17.208692012613
665	649	648	17.049416167315
665	650	649	16.971509329069
663	636	635	68.133230370666
663	637	636	68.133230370666
663	638	637	68.076392658032
663	639	638	68.017165603828
663	640	639	67.961348950553
663	641	640	67.901709456129
663	642	641	67.842767147954
663	643	642	69.170914715734
663	644	643	69.361903732629
663	645	644	69.34091878726
663	646	645	69.3195734253
663	647	646	69.297899648273
663	648	647	69.27563327184
663	649	648	69.254591463795
663	650	649	69.233744409179
662	636	635	30.099491829414
662	637	636	30.099491829414
662	638	637	47.383323534782
662	639	638	65.393732290608
662	640	639	82.367069127218
662	641	640	100.50289720437
662	642	641	118.4267172813
662	643	642	136.31500884917
662	644	643	154.2597306653
662	645	644	171.42191848621
662	646	645	188.87886700901
662	647	646	206.60440432032
662	648	647	224.81458918018
662	649	648	242.0232811928
662	650	649	259.07269736011
vector 680 RSUExampleScenario.node[136].veinsmobility posx ETV
vector 681 RSUExampleScenario.node[136].veinsmobility posy ETV
vector 682 RSUExampleScenario.node[137].veinsmobility posx ETV
vector 683 RSUExampleScenario.node[137].veinsmobility posy ETV
vector 684 RSUExampleScenario.node[136].veinsmobility speed ETV
vector 685 RSUExampleScenario.node[137].veinsmobility speed ETV
vector 686 RSUExampleScenario.node[136].veinsmobility acceleration ETV
vector 687 RSUExampleScenario.node[136].veinsmobility co2emission ETV
vector 688 RSUExampleScenario.node[137].veinsmobility acceleration ETV
vector 689 RSUExampleScenario.node[137].veinsmobility co2emission ETV
667	638	637	2.0735896099988
667	639	638	0.973
667	640	639	2.424310023636
667	641	640	0.973
667	642	641	3.0556174299853
667	643	642	0.973
667	644	643	0.973
667	645	644	4.3303057117939
667	646	645	5.511658698298
667	647	646	7.884925469049
667	648	647	6.5509646114978
667	649	648	0.973
667	650	649	1.5151995002802
667	651	650	3.2092943634735
667	652	651	0.973
667	653	652	3.9030888994462
667	654	653	1.7397730552241
667	655	654	0.973
667	656	655	2.5029050698457
667	657	656	3.0499575557894
667	658	657	0.973
666	638	637	0.067649036436341
666	639	638	-0.45713841258548
666	640	639	0.19814459034242
666	641	640	-0.26829748216551
666	642	641	0.40711534076836
666	643	642	-4.4081719540502
666	644	643	-3.5938886992197
666	645	644	1.9672754613683
666	646	645	2.017625762173
666	647	646	2.4189407535829
666	648	647	1.5996841371997
666	649	648	-0.45330383770633
666	650	649	-0.10681369884405
666	651	650	0.46592480568215
666	652	651	-0.52554904930294
666	653	652	0.69005482080393
666	654	653	-0.042707613739186
666	655	654	-0.69576623828616
666	656	655	0.23970916424878
666	657	656	0.40649244321976
666	658	657	-0.50975473597646
664	637	636	12.211681628208
664	638	637	12.279330664644
664	639	638	11.822192252058
664	640	639	12.020336842401
664	641	640	11.752039360235
664	642	641	12.159154701004
664	643	642	7.7509827469535
664	644	643	4.1570940477337
664	645	644	6.124369509102
664	646	645	8.141995271275
664	647	646	10.560936024858
664	648	647	12.160620162058
664	649	648	11.707316324351
664	650	649	11.600502625507
664	651	650	12.066427431189
664	652	651	11.540878381886
664	653	652	12.23093320269
664	654	653	12.188225588951
664	655	654	11.492459350665
664	656	655	11.732168514914
664	657	656	12.138660958134
664	658	657	11.628906222157
661	636	635	28.571856717077
661	637	636	28.571856717077
661	638	637	33.652530969943
661	639	638	38.761350627195
661	640	639	43.67997769398
661	641	640	48.681042884289
661	642	641	53.570482816812
661	643	642	58.62930322393
661	644	643	61.854102205415
661	645	644	63.583662583592
661	646	645	66.339902691031
661	647	646	69.156928794729
661	648	647	69.368934037438
661	649	648	69.354064724014
661	650	649	69.339749684693
661	651	650	69.325565251078
661	652	651	69.310811111158
661	653	652	69.296699582669
661	654	653	69.281744294466
661	655	654	69.266841226698
661	656	655	69.252788902243
661	657	656	69.23844347508
661	658	657	69.223601012119
660	636	635	48.407796666299
660	637	636	48.407796666299
660	638	637	59.512756733985
660	639	638	70.679234934155
660	640	639	81.430004309633
660	641	640	92.360960806785
660	642	641	103.04793511406
660	643	642	114.1051286704
660	644	643	121.15365454184
660	645	644	124.93399903519
660	646	645	130.40122197918
660	647	646	137.96584381375
660	648	647	148.51011304847
660	649	648	160.67073321053
660	650	649	172.37804953488
660	651	650	183.97855216039
660	652	651	196.04497959158
660	653	652	207.58585797346
660	654	653	219.81679117615
660	655	654	232.00501676511
660	656	655	243.49747611577
660	657	656	255.22964463068
660	658	657	267.36830558882
670	646	645	48.407796666299
670	647	646	48.407796666299
670	648	647	59.358185764343
670	649	648	70.384906748636
670	650	649	81.42229156203
670	651	650	93.035841093542
670	652	651	104.37695927847
670	653	652	114.81593019065
670	654	653	121.69051463421
670	655	654	125.26696031362
670	656	655	125.70323969198
670	657	656	125.94745138977
670	658	657	128.19194843637
670	659	658	131.69177855163
670	660	659	136.80879746325
670	661	660	144.39601953274
671	646	645	28.571856717077
671	647	646	28.571856717077
671	648	647	33.581812593567
671	649	648	38.626691373587
671	650	649	43.676449004284
671	651	650	48.989810036606
671	652	651	54.178529924805
671	653	652	58.954504842019
671	654	653	62.09972319208
671	655	654	63.735997016515
671	656	655	63.935600922443
671	657	656	64.047331183303
671	658	657	65.185725108325
671	659	658	67.031705743976
671	660	659	68.984186663527
671	661	660	69.373964516569
672	646	645	30.099491829414
672	647	646	30.099491829414
672	648	647	43.034889759379
672	649	648	55.680455747305
672	650	649	68.332754090745
672	651	650	80.702457475744
672	652	651	92.973210752678
672	653	652	106.06360468823
672	654	653	118.16051659489
672	655	654	130.40913123795
672	656	655	142.73791885874
672	657	656	155.82501942177
672	658	657	168.48934533197
672	659	658	180.89412555891
672	660	659	193.44019898559
672	661	660	205.71288942546
673	646	645	68.133230370666
673	647	646	68.133230370666
673	648	647	68.090692440253
673	649	648	68.049107619366
673	650	649	68.007500659193
673	651	650	67.966823009796
673	652	651	67.926470756867
673	653	652	67.883423123596
673	654	653	67.843642546325
673	655	654	68.28591013619
673	656	655	69.375991947595
673	657	656	69.359989786727
673	658	657	69.344504570615
673	659	658	69.329336712176
673	660	659	69.313996088463
673	661	660	69.298989741889
674	647	646	12.041706098468
674	648	647	12.125645229026
674	649	648	12.137371816525
674	650	649	12.770957174796
674	651	650	12.471375289784
674	652	651	11.479319919089
674	653	652	7.5597062969479
674	654	653	3.9328746552296
674	655	654	0.47975902992789
674	656	655	0.26854986286388
674	657	656	2.5170402628942
674	658	657	3.9572636337824
674	659	658	5.5076549560636
674	660	659	7.6167953073386
674	661	660	9.356333360203
675	647	646	12.936686958159
675	648	647	12.646826134013
675	649	648	12.653559160415
675	650	649	12.370936041042
675	651	650	12.271976072477
675	652	651	13.091698409287
675	653	652	12.0981173787
675	654	653	12.274841568219
675	655	654	12.403277136428
675	656	655	13.087100563032
675	657	656	12.664325910198
675	658	657	12.404780226942
675	659	658	12.546073426675
675	660	659	12.272690439872
675	661	660	13.134171204614
676	648	647	0.083939130557701
676	649	648	0.011726587498561
676	650	649	0.63358535827138
676	651	650	-0.29958188501187
676	652	651	-0.99205537069551
676	653	652	-3.9196136221406
676	654	653	-3.6268316417183
676	655	654	-3.4531156253017
676	656	655	-0.21120916706401
676	657	656	2.2484904000303
676	658	657	1.4402233708883
676	659	658	1.5503913222812
676	660	659	2.109140351275
676	661	660	1.7395380528644
677	648	647	2.1049324082216
677	649	648	1.8949842272928
677	650	649	3.8685372424389
677	651	650	0.973
677	652	651	0.973
677	653	652	0.973
677	654	653	0.973
677	655	654	0.973
677	656	655	0.973
677	657	656	2.5968445085208
677	658	657	2.6801649628459
677	659	658	3.4490270034819
677	660	659	5.3898943303894
677	661	660	5.5594567985239
678	648	647	-0.28986082414631
678	649	648	0.0067330264020722
678	650	649	-0.28262311937288
678	651	650	-0.098959968565032
678	652	651	0.81972233681008
678	653	652	-0.99358103058767
678	654	653	0.17672418951988
678	655	654	0.12843556820881
678	656	655	0.68382342660334
678	657	656	-0.42277465283405
678	658	657	-0.25954568325542
678	659	658	0.1412931997329
678	660	659	-0.27338298680261
678	661	660	0.86148076474201
679	648	647	0.973
679	649	648	1.9280991430116
679	650	649	0.973
679	651	650	1.5800539404555
679	652	651	4.5351304760028
679	653	652	0.973
679	654	653	2.3957824839191
679	655	654	2.268523851893
679	656	655	4.1051580683195
679	657	656	0.973
679	658	657	0.973
679	659	658	2.3248671848959
679	660	659	0.973
679	661	660	4.6797733938827
680	655	654	48.407796666299
680	656	655	48.407796666299
680	657	656	62.048334710456
680	658	657	75.914321561266
680	659	658	89.252423660533
680	660	659	102.8125097398
680	661	660	113.74335808818
681	655	654	28.571856717077
681	656	655	28.571856717077
681	657	656	34.812593290083
681	658	657	41.156475839331
681	659	658	47.258843745636
681	660	659	53.462772421619
681	661	660	58.463788132356
682	655	654	30.099491829414
682	656	655	30.099491829414
682	657	656	43.090358501475
682	658	657	56.404865269362
682	659	658	69.37939113235
682	660	659	82.597896924726
682	661	660	95.60752146757
683	655	654	68.133230370666
683	656	655	68.133230370666
683	657	656	68.090510031834
683	658	657	68.046725405691
683	659	658	68.004058803451
683	660	659	67.960589875584
683	661	660	67.917807851676
684	656	655	14.99995558898
684	657	656	15.247872648882
684	658	657	14.667378844047
684	659	658	14.911485772282
684	660	659	12.020217915512
684	661	660	8.702258856644
685	656	655	12.992161227783
685	657	656	13.31583357474
685	658	657	12.975818790329
685	659	658	13.219823032614
685	660	659	13.01092096781
685	661	660	12.520783798603
686	657	656	0.2479170599021
686	658	657	-0.58049380483572
686	659	658	0.24410692823585
686	660	659	-2.8912678567701
686	661	660	-3.3179590588683
687	657	656	3.0840792689726
687	658	657	0.973
687	659	658	3.012861202529
687	660	659	0.973
687	661	660	0.973
688	657	656	0.32367234695703
688	658	657	-0.3400147844106
688	659	658	0.24400424228516
688	660	659	-0.20890206480399
688	661	660	-0.49013716920745
689	657	656	3.0091689840371
689	658	657	0.973
689	659	658	2.7385433789347
689	660	659	1.2860751626189
689	661	660	0.973

