version 2
run General-0-20201104-22:24:47-12184
attr configname General
attr datetime 20201104-22:24:47
attr experiment General
attr inifile omnetpp.ini
attr iterationvars ""
attr iterationvarsf ""
attr measurement ""
attr network RSUExampleScenario
attr processid 12184
attr repetition 0
attr replication #0
attr resultdir results
attr runnumber 0
attr seedset 0
param *.playgroundSizeX 2500m
param *.playgroundSizeY 2500m
param *.playgroundSizeZ 50m
param *.annotations.draw true
param *.manager.updateInterval 1s
param *.manager.host "\"localhost\""
param *.manager.port 9999
param *.manager.autoShutdown true
param *.manager.launchConfig "xmldoc(\"erlangen.launchd.xml\")"
param *.rsu[0].mobility.x 2000
param *.rsu[0].mobility.y 2000
param *.rsu[0].mobility.z 3
param *.rsu[*].applType "\"TraCIDemoRSU11p\""
param *.rsu[*].appl.headerLength "80 bit"
param *.rsu[*].appl.sendBeacons false
param *.rsu[*].appl.dataOnSch false
param *.rsu[*].appl.beaconInterval 1s
param *.rsu[*].appl.beaconUserPriority 7
param *.rsu[*].appl.dataUserPriority 5
param *.rsu[*].nic.phy80211p.antennaOffsetZ "0 m"
param *.connectionManager.sendDirect true
param *.connectionManager.maxInterfDist 60m
param *.connectionManager.drawMaxIntfDist false
param *.**.nic.mac1609_4.useServiceChannel false
param *.**.nic.mac1609_4.txPower 20mW
param *.**.nic.mac1609_4.bitrate 6Mbps
param *.**.nic.phy80211p.minPowerLevel -110dBm
param *.**.nic.phy80211p.useNoiseFloor true
param *.**.nic.phy80211p.noiseFloor -98dBm
param *.**.nic.phy80211p.decider "xmldoc(\"config.xml\")"
param *.**.nic.phy80211p.analogueModels "xmldoc(\"config.xml\")"
param *.**.nic.phy80211p.usePropagationDelay true
param *.**.nic.phy80211p.antenna "xmldoc(\"antenna.xml\", \"/root/Antenna[@id='monopole']\")"
param *.node[*].nic.phy80211p.antennaOffsetY "0 m"
param *.node[*].nic.phy80211p.antennaOffsetZ "1.895 m"
param *.node[*].applType "\"TraCIDemo11p\""
param *.node[*].appl.headerLength "80 bit"
param *.node[*].appl.sendBeacons false
param *.node[*].appl.dataOnSch false
param *.node[*].appl.beaconInterval 2s
param *.node[*].veinsmobility.x 0
param *.node[*].veinsmobility.y 0
param *.node[*].veinsmobility.z 0
param *.node[*].veinsmobility.setHostSpeed false
param *.node[*0].veinsmobility.accidentCount 0
param *.node[*0].veinsmobility.accidentStart 73s
param *.node[*0].veinsmobility.accidentDuration 50s

scalar RSUExampleScenario.node[1].appl generatedWSMs 0
scalar RSUExampleScenario.node[1].appl receivedWSMs 0
scalar RSUExampleScenario.node[1].appl generatedBSMs 0
scalar RSUExampleScenario.node[1].appl receivedBSMs 0
scalar RSUExampleScenario.node[1].appl generatedWSAs 0
scalar RSUExampleScenario.node[1].appl receivedWSAs 0
scalar RSUExampleScenario.node[1].nic.phy80211p busyTime 0
scalar RSUExampleScenario.node[1].nic.mac1609_4 ReceivedUnicastPackets 0
scalar RSUExampleScenario.node[1].nic.mac1609_4 ReceivedBroadcasts 0
scalar RSUExampleScenario.node[1].nic.mac1609_4 SentPackets 0
scalar RSUExampleScenario.node[1].nic.mac1609_4 SentAcknowledgements 0
scalar RSUExampleScenario.node[1].nic.mac1609_4 SNIRLostPackets 0
scalar RSUExampleScenario.node[1].nic.mac1609_4 RXTXLostPackets 0
scalar RSUExampleScenario.node[1].nic.mac1609_4 TotalLostPackets 0
scalar RSUExampleScenario.node[1].nic.mac1609_4 DroppedPacketsInMac 0
scalar RSUExampleScenario.node[1].nic.mac1609_4 TooLittleTime 0
scalar RSUExampleScenario.node[1].nic.mac1609_4 TimesIntoBackoff 0
scalar RSUExampleScenario.node[1].nic.mac1609_4 SlotsBackoff 0
scalar RSUExampleScenario.node[1].nic.mac1609_4 NumInternalContention 0
scalar RSUExampleScenario.node[1].nic.mac1609_4 totalBusyTime 0
scalar RSUExampleScenario.node[1].veinsmobility startTime 1
scalar RSUExampleScenario.node[1].veinsmobility totalTime 18
scalar RSUExampleScenario.node[1].veinsmobility stopTime 20
scalar RSUExampleScenario.node[1].veinsmobility minSpeed 13.29284790923
scalar RSUExampleScenario.node[1].veinsmobility maxSpeed 14.553905366302
scalar RSUExampleScenario.node[1].veinsmobility totalDistance 248.77952906464
scalar RSUExampleScenario.node[1].veinsmobility totalCO2Emission 45.870901247116
scalar RSUExampleScenario.node[0].appl generatedWSMs 0
scalar RSUExampleScenario.node[0].appl receivedWSMs 0
scalar RSUExampleScenario.node[0].appl generatedBSMs 0
scalar RSUExampleScenario.node[0].appl receivedBSMs 0
scalar RSUExampleScenario.node[0].appl generatedWSAs 0
scalar RSUExampleScenario.node[0].appl receivedWSAs 0
scalar RSUExampleScenario.node[0].nic.phy80211p busyTime 0
scalar RSUExampleScenario.node[0].nic.mac1609_4 ReceivedUnicastPackets 0
scalar RSUExampleScenario.node[0].nic.mac1609_4 ReceivedBroadcasts 0
scalar RSUExampleScenario.node[0].nic.mac1609_4 SentPackets 0
scalar RSUExampleScenario.node[0].nic.mac1609_4 SentAcknowledgements 0
scalar RSUExampleScenario.node[0].nic.mac1609_4 SNIRLostPackets 0
scalar RSUExampleScenario.node[0].nic.mac1609_4 RXTXLostPackets 0
scalar RSUExampleScenario.node[0].nic.mac1609_4 TotalLostPackets 0
scalar RSUExampleScenario.node[0].nic.mac1609_4 DroppedPacketsInMac 0
scalar RSUExampleScenario.node[0].nic.mac1609_4 TooLittleTime 0
scalar RSUExampleScenario.node[0].nic.mac1609_4 TimesIntoBackoff 0
scalar RSUExampleScenario.node[0].nic.mac1609_4 SlotsBackoff 0
scalar RSUExampleScenario.node[0].nic.mac1609_4 NumInternalContention 0
scalar RSUExampleScenario.node[0].nic.mac1609_4 totalBusyTime 0
scalar RSUExampleScenario.node[0].veinsmobility startTime 1
scalar RSUExampleScenario.node[0].veinsmobility totalTime 22
scalar RSUExampleScenario.node[0].veinsmobility stopTime 24
scalar RSUExampleScenario.node[0].veinsmobility minSpeed 0.22565845148913
scalar RSUExampleScenario.node[0].veinsmobility maxSpeed 15.413573130217
scalar RSUExampleScenario.node[0].veinsmobility totalDistance 235.37731720594
scalar RSUExampleScenario.node[0].veinsmobility totalCO2Emission 68.921424551686
scalar RSUExampleScenario.node[3].appl generatedWSMs 0
scalar RSUExampleScenario.node[3].appl receivedWSMs 0
scalar RSUExampleScenario.node[3].appl generatedBSMs 0
scalar RSUExampleScenario.node[3].appl receivedBSMs 0
scalar RSUExampleScenario.node[3].appl generatedWSAs 0
scalar RSUExampleScenario.node[3].appl receivedWSAs 0
scalar RSUExampleScenario.node[3].nic.phy80211p busyTime 0
scalar RSUExampleScenario.node[3].nic.mac1609_4 ReceivedUnicastPackets 0
scalar RSUExampleScenario.node[3].nic.mac1609_4 ReceivedBroadcasts 0
scalar RSUExampleScenario.node[3].nic.mac1609_4 SentPackets 0
scalar RSUExampleScenario.node[3].nic.mac1609_4 SentAcknowledgements 0
scalar RSUExampleScenario.node[3].nic.mac1609_4 SNIRLostPackets 0
scalar RSUExampleScenario.node[3].nic.mac1609_4 RXTXLostPackets 0
scalar RSUExampleScenario.node[3].nic.mac1609_4 TotalLostPackets 0
scalar RSUExampleScenario.node[3].nic.mac1609_4 DroppedPacketsInMac 0
scalar RSUExampleScenario.node[3].nic.mac1609_4 TooLittleTime 0
scalar RSUExampleScenario.node[3].nic.mac1609_4 TimesIntoBackoff 0
scalar RSUExampleScenario.node[3].nic.mac1609_4 SlotsBackoff 0
scalar RSUExampleScenario.node[3].nic.mac1609_4 NumInternalContention 0
scalar RSUExampleScenario.node[3].nic.mac1609_4 totalBusyTime 0
scalar RSUExampleScenario.node[3].veinsmobility startTime 11
scalar RSUExampleScenario.node[3].veinsmobility totalTime 18
scalar RSUExampleScenario.node[3].veinsmobility stopTime 30
scalar RSUExampleScenario.node[3].veinsmobility minSpeed 12.824131389407
scalar RSUExampleScenario.node[3].veinsmobility maxSpeed 14.09584536995
scalar RSUExampleScenario.node[3].veinsmobility totalDistance 244.31028458208
scalar RSUExampleScenario.node[3].veinsmobility totalCO2Emission 40.917348058175
scalar RSUExampleScenario.node[2].appl generatedWSMs 0
scalar RSUExampleScenario.node[2].appl receivedWSMs 0
scalar RSUExampleScenario.node[2].appl generatedBSMs 0
scalar RSUExampleScenario.node[2].appl receivedBSMs 0
scalar RSUExampleScenario.node[2].appl generatedWSAs 0
scalar RSUExampleScenario.node[2].appl receivedWSAs 0
scalar RSUExampleScenario.node[2].nic.phy80211p busyTime 0
scalar RSUExampleScenario.node[2].nic.mac1609_4 ReceivedUnicastPackets 0
scalar RSUExampleScenario.node[2].nic.mac1609_4 ReceivedBroadcasts 0
scalar RSUExampleScenario.node[2].nic.mac1609_4 SentPackets 0
scalar RSUExampleScenario.node[2].nic.mac1609_4 SentAcknowledgements 0
scalar RSUExampleScenario.node[2].nic.mac1609_4 SNIRLostPackets 0
scalar RSUExampleScenario.node[2].nic.mac1609_4 RXTXLostPackets 0
scalar RSUExampleScenario.node[2].nic.mac1609_4 TotalLostPackets 0
scalar RSUExampleScenario.node[2].nic.mac1609_4 DroppedPacketsInMac 0
scalar RSUExampleScenario.node[2].nic.mac1609_4 TooLittleTime 0
scalar RSUExampleScenario.node[2].nic.mac1609_4 TimesIntoBackoff 0
scalar RSUExampleScenario.node[2].nic.mac1609_4 SlotsBackoff 0
scalar RSUExampleScenario.node[2].nic.mac1609_4 NumInternalContention 0
scalar RSUExampleScenario.node[2].nic.mac1609_4 totalBusyTime 0
scalar RSUExampleScenario.node[2].veinsmobility startTime 11
scalar RSUExampleScenario.node[2].veinsmobility totalTime 22
scalar RSUExampleScenario.node[2].veinsmobility stopTime 34
scalar RSUExampleScenario.node[2].veinsmobility minSpeed 0.90593610158518
scalar RSUExampleScenario.node[2].veinsmobility maxSpeed 14.281721303212
scalar RSUExampleScenario.node[2].veinsmobility totalDistance 242.24800526937
scalar RSUExampleScenario.node[2].veinsmobility totalCO2Emission 66.379735907144
scalar RSUExampleScenario.node[5].appl generatedWSMs 0
scalar RSUExampleScenario.node[5].appl receivedWSMs 0
scalar RSUExampleScenario.node[5].appl generatedBSMs 0
scalar RSUExampleScenario.node[5].appl receivedBSMs 0
scalar RSUExampleScenario.node[5].appl generatedWSAs 0
scalar RSUExampleScenario.node[5].appl receivedWSAs 0
scalar RSUExampleScenario.node[5].nic.phy80211p busyTime 0
scalar RSUExampleScenario.node[5].nic.mac1609_4 ReceivedUnicastPackets 0
scalar RSUExampleScenario.node[5].nic.mac1609_4 ReceivedBroadcasts 0
scalar RSUExampleScenario.node[5].nic.mac1609_4 SentPackets 0
scalar RSUExampleScenario.node[5].nic.mac1609_4 SentAcknowledgements 0
scalar RSUExampleScenario.node[5].nic.mac1609_4 SNIRLostPackets 0
scalar RSUExampleScenario.node[5].nic.mac1609_4 RXTXLostPackets 0
scalar RSUExampleScenario.node[5].nic.mac1609_4 TotalLostPackets 0
scalar RSUExampleScenario.node[5].nic.mac1609_4 DroppedPacketsInMac 0
scalar RSUExampleScenario.node[5].nic.mac1609_4 TooLittleTime 0
scalar RSUExampleScenario.node[5].nic.mac1609_4 TimesIntoBackoff 0
scalar RSUExampleScenario.node[5].nic.mac1609_4 SlotsBackoff 0
scalar RSUExampleScenario.node[5].nic.mac1609_4 NumInternalContention 0
scalar RSUExampleScenario.node[5].nic.mac1609_4 totalBusyTime 0
scalar RSUExampleScenario.node[5].veinsmobility startTime 21
scalar RSUExampleScenario.node[5].veinsmobility totalTime 16
scalar RSUExampleScenario.node[5].veinsmobility stopTime 38
scalar RSUExampleScenario.node[5].veinsmobility minSpeed 14.820490105383
scalar RSUExampleScenario.node[5].veinsmobility maxSpeed 15.956727441636
scalar RSUExampleScenario.node[5].veinsmobility totalDistance 246.32124494265
scalar RSUExampleScenario.node[5].veinsmobility totalCO2Emission 37.328152124673
scalar RSUExampleScenario.node[4].appl generatedWSMs 0
scalar RSUExampleScenario.node[4].appl receivedWSMs 0
scalar RSUExampleScenario.node[4].appl generatedBSMs 0
scalar RSUExampleScenario.node[4].appl receivedBSMs 0
scalar RSUExampleScenario.node[4].appl generatedWSAs 0
scalar RSUExampleScenario.node[4].appl receivedWSAs 0
scalar RSUExampleScenario.node[4].nic.phy80211p busyTime 0
scalar RSUExampleScenario.node[4].nic.mac1609_4 ReceivedUnicastPackets 0
scalar RSUExampleScenario.node[4].nic.mac1609_4 ReceivedBroadcasts 0
scalar RSUExampleScenario.node[4].nic.mac1609_4 SentPackets 0
scalar RSUExampleScenario.node[4].nic.mac1609_4 SentAcknowledgements 0
scalar RSUExampleScenario.node[4].nic.mac1609_4 SNIRLostPackets 0
scalar RSUExampleScenario.node[4].nic.mac1609_4 RXTXLostPackets 0
scalar RSUExampleScenario.node[4].nic.mac1609_4 TotalLostPackets 0
scalar RSUExampleScenario.node[4].nic.mac1609_4 DroppedPacketsInMac 0
scalar RSUExampleScenario.node[4].nic.mac1609_4 TooLittleTime 0
scalar RSUExampleScenario.node[4].nic.mac1609_4 TimesIntoBackoff 0
scalar RSUExampleScenario.node[4].nic.mac1609_4 SlotsBackoff 0
scalar RSUExampleScenario.node[4].nic.mac1609_4 NumInternalContention 0
scalar RSUExampleScenario.node[4].nic.mac1609_4 totalBusyTime 0
scalar RSUExampleScenario.node[4].veinsmobility startTime 21
scalar RSUExampleScenario.node[4].veinsmobility totalTime 22
scalar RSUExampleScenario.node[4].veinsmobility stopTime 44
scalar RSUExampleScenario.node[4].veinsmobility minSpeed 5.0340449807649
scalar RSUExampleScenario.node[4].veinsmobility maxSpeed 12.22767702383
scalar RSUExampleScenario.node[4].veinsmobility totalDistance 238.34963292324
scalar RSUExampleScenario.node[4].veinsmobility totalCO2Emission 53.283643241254
scalar RSUExampleScenario.node[7].appl generatedWSMs 0
scalar RSUExampleScenario.node[7].appl receivedWSMs 0
scalar RSUExampleScenario.node[7].appl generatedBSMs 0
scalar RSUExampleScenario.node[7].appl receivedBSMs 0
scalar RSUExampleScenario.node[7].appl generatedWSAs 0
scalar RSUExampleScenario.node[7].appl receivedWSAs 0
scalar RSUExampleScenario.node[7].nic.phy80211p busyTime 0
scalar RSUExampleScenario.node[7].nic.mac1609_4 ReceivedUnicastPackets 0
scalar RSUExampleScenario.node[7].nic.mac1609_4 ReceivedBroadcasts 0
scalar RSUExampleScenario.node[7].nic.mac1609_4 SentPackets 0
scalar RSUExampleScenario.node[7].nic.mac1609_4 SentAcknowledgements 0
scalar RSUExampleScenario.node[7].nic.mac1609_4 SNIRLostPackets 0
scalar RSUExampleScenario.node[7].nic.mac1609_4 RXTXLostPackets 0
scalar RSUExampleScenario.node[7].nic.mac1609_4 TotalLostPackets 0
scalar RSUExampleScenario.node[7].nic.mac1609_4 DroppedPacketsInMac 0
scalar RSUExampleScenario.node[7].nic.mac1609_4 TooLittleTime 0
scalar RSUExampleScenario.node[7].nic.mac1609_4 TimesIntoBackoff 0
scalar RSUExampleScenario.node[7].nic.mac1609_4 SlotsBackoff 0
scalar RSUExampleScenario.node[7].nic.mac1609_4 NumInternalContention 0
scalar RSUExampleScenario.node[7].nic.mac1609_4 totalBusyTime 0
scalar RSUExampleScenario.node[7].veinsmobility startTime 30
scalar RSUExampleScenario.node[7].veinsmobility totalTime 25
scalar RSUExampleScenario.node[7].veinsmobility stopTime 56
scalar RSUExampleScenario.node[7].veinsmobility minSpeed 9.5027009310583
scalar RSUExampleScenario.node[7].veinsmobility maxSpeed 10.571544592167
scalar RSUExampleScenario.node[7].veinsmobility totalDistance 251.66896140119
scalar RSUExampleScenario.node[7].veinsmobility totalCO2Emission 44.00041949759
scalar RSUExampleScenario.node[9].appl generatedWSMs 0
scalar RSUExampleScenario.node[9].appl receivedWSMs 0
scalar RSUExampleScenario.node[9].appl generatedBSMs 0
scalar RSUExampleScenario.node[9].appl receivedBSMs 0
scalar RSUExampleScenario.node[9].appl generatedWSAs 0
scalar RSUExampleScenario.node[9].appl receivedWSAs 0
scalar RSUExampleScenario.node[9].nic.phy80211p busyTime 0
scalar RSUExampleScenario.node[9].nic.mac1609_4 ReceivedUnicastPackets 0
scalar RSUExampleScenario.node[9].nic.mac1609_4 ReceivedBroadcasts 0
scalar RSUExampleScenario.node[9].nic.mac1609_4 SentPackets 0
scalar RSUExampleScenario.node[9].nic.mac1609_4 SentAcknowledgements 0
scalar RSUExampleScenario.node[9].nic.mac1609_4 SNIRLostPackets 0
scalar RSUExampleScenario.node[9].nic.mac1609_4 RXTXLostPackets 0
scalar RSUExampleScenario.node[9].nic.mac1609_4 TotalLostPackets 0
scalar RSUExampleScenario.node[9].nic.mac1609_4 DroppedPacketsInMac 0
scalar RSUExampleScenario.node[9].nic.mac1609_4 TooLittleTime 0
scalar RSUExampleScenario.node[9].nic.mac1609_4 TimesIntoBackoff 0
scalar RSUExampleScenario.node[9].nic.mac1609_4 SlotsBackoff 0
scalar RSUExampleScenario.node[9].nic.mac1609_4 NumInternalContention 0
scalar RSUExampleScenario.node[9].nic.mac1609_4 totalBusyTime 0
scalar RSUExampleScenario.node[9].veinsmobility startTime 40
scalar RSUExampleScenario.node[9].veinsmobility totalTime 17
scalar RSUExampleScenario.node[9].veinsmobility stopTime 58
scalar RSUExampleScenario.node[9].veinsmobility minSpeed 10.974389615714
scalar RSUExampleScenario.node[9].veinsmobility maxSpeed 17.274399272958
scalar RSUExampleScenario.node[9].veinsmobility totalDistance 254.74998669088
scalar RSUExampleScenario.node[9].veinsmobility totalCO2Emission 35.964582835184
scalar RSUExampleScenario.node[6].appl generatedWSMs 0
scalar RSUExampleScenario.node[6].appl receivedWSMs 0
scalar RSUExampleScenario.node[6].appl generatedBSMs 0
scalar RSUExampleScenario.node[6].appl receivedBSMs 0
scalar RSUExampleScenario.node[6].appl generatedWSAs 0
scalar RSUExampleScenario.node[6].appl receivedWSAs 0
scalar RSUExampleScenario.node[6].nic.phy80211p busyTime 0
scalar RSUExampleScenario.node[6].nic.mac1609_4 ReceivedUnicastPackets 0
scalar RSUExampleScenario.node[6].nic.mac1609_4 ReceivedBroadcasts 0
scalar RSUExampleScenario.node[6].nic.mac1609_4 SentPackets 0
scalar RSUExampleScenario.node[6].nic.mac1609_4 SentAcknowledgements 0
scalar RSUExampleScenario.node[6].nic.mac1609_4 SNIRLostPackets 0
scalar RSUExampleScenario.node[6].nic.mac1609_4 RXTXLostPackets 0
scalar RSUExampleScenario.node[6].nic.mac1609_4 TotalLostPackets 0
scalar RSUExampleScenario.node[6].nic.mac1609_4 DroppedPacketsInMac 0
scalar RSUExampleScenario.node[6].nic.mac1609_4 TooLittleTime 0
scalar RSUExampleScenario.node[6].nic.mac1609_4 TimesIntoBackoff 0
scalar RSUExampleScenario.node[6].nic.mac1609_4 SlotsBackoff 0
scalar RSUExampleScenario.node[6].nic.mac1609_4 NumInternalContention 0
scalar RSUExampleScenario.node[6].nic.mac1609_4 totalBusyTime 0
scalar RSUExampleScenario.node[6].veinsmobility startTime 30
scalar RSUExampleScenario.node[6].veinsmobility totalTime 32
scalar RSUExampleScenario.node[6].veinsmobility stopTime 63
scalar RSUExampleScenario.node[6].veinsmobility minSpeed 0
scalar RSUExampleScenario.node[6].veinsmobility maxSpeed 13.033264862197
scalar RSUExampleScenario.node[6].veinsmobility totalDistance 236.03521026479
scalar RSUExampleScenario.node[6].veinsmobility totalCO2Emission 70.250836693132
scalar RSUExampleScenario.node[8].appl generatedWSMs 0
scalar RSUExampleScenario.node[8].appl receivedWSMs 0
scalar RSUExampleScenario.node[8].appl generatedBSMs 0
scalar RSUExampleScenario.node[8].appl receivedBSMs 0
scalar RSUExampleScenario.node[8].appl generatedWSAs 0
scalar RSUExampleScenario.node[8].appl receivedWSAs 0
scalar RSUExampleScenario.node[8].nic.phy80211p busyTime 0
scalar RSUExampleScenario.node[8].nic.mac1609_4 ReceivedUnicastPackets 0
scalar RSUExampleScenario.node[8].nic.mac1609_4 ReceivedBroadcasts 0
scalar RSUExampleScenario.node[8].nic.mac1609_4 SentPackets 0
scalar RSUExampleScenario.node[8].nic.mac1609_4 SentAcknowledgements 0
scalar RSUExampleScenario.node[8].nic.mac1609_4 SNIRLostPackets 0
scalar RSUExampleScenario.node[8].nic.mac1609_4 RXTXLostPackets 0
scalar RSUExampleScenario.node[8].nic.mac1609_4 TotalLostPackets 0
scalar RSUExampleScenario.node[8].nic.mac1609_4 DroppedPacketsInMac 0
scalar RSUExampleScenario.node[8].nic.mac1609_4 TooLittleTime 0
scalar RSUExampleScenario.node[8].nic.mac1609_4 TimesIntoBackoff 0
scalar RSUExampleScenario.node[8].nic.mac1609_4 SlotsBackoff 0
scalar RSUExampleScenario.node[8].nic.mac1609_4 NumInternalContention 0
scalar RSUExampleScenario.node[8].nic.mac1609_4 totalBusyTime 0
scalar RSUExampleScenario.node[8].veinsmobility startTime 40
scalar RSUExampleScenario.node[8].veinsmobility totalTime 24
scalar RSUExampleScenario.node[8].veinsmobility stopTime 65
scalar RSUExampleScenario.node[8].veinsmobility minSpeed 0.51807000632544
scalar RSUExampleScenario.node[8].veinsmobility maxSpeed 14.273477831041
scalar RSUExampleScenario.node[8].veinsmobility totalDistance 239.3015463093
scalar RSUExampleScenario.node[8].veinsmobility totalCO2Emission 69.914837478577
scalar RSUExampleScenario.node[11].appl generatedWSMs 0
scalar RSUExampleScenario.node[11].appl receivedWSMs 0
scalar RSUExampleScenario.node[11].appl generatedBSMs 0
scalar RSUExampleScenario.node[11].appl receivedBSMs 0
scalar RSUExampleScenario.node[11].appl generatedWSAs 0
scalar RSUExampleScenario.node[11].appl receivedWSAs 0
scalar RSUExampleScenario.node[11].nic.phy80211p busyTime 0
scalar RSUExampleScenario.node[11].nic.mac1609_4 ReceivedUnicastPackets 0
scalar RSUExampleScenario.node[11].nic.mac1609_4 ReceivedBroadcasts 0
scalar RSUExampleScenario.node[11].nic.mac1609_4 SentPackets 0
scalar RSUExampleScenario.node[11].nic.mac1609_4 SentAcknowledgements 0
scalar RSUExampleScenario.node[11].nic.mac1609_4 SNIRLostPackets 0
scalar RSUExampleScenario.node[11].nic.mac1609_4 RXTXLostPackets 0
scalar RSUExampleScenario.node[11].nic.mac1609_4 TotalLostPackets 0
scalar RSUExampleScenario.node[11].nic.mac1609_4 DroppedPacketsInMac 0
scalar RSUExampleScenario.node[11].nic.mac1609_4 TooLittleTime 0
scalar RSUExampleScenario.node[11].nic.mac1609_4 TimesIntoBackoff 0
scalar RSUExampleScenario.node[11].nic.mac1609_4 SlotsBackoff 0
scalar RSUExampleScenario.node[11].nic.mac1609_4 NumInternalContention 0
scalar RSUExampleScenario.node[11].nic.mac1609_4 totalBusyTime 0
scalar RSUExampleScenario.node[11].veinsmobility startTime 49
scalar RSUExampleScenario.node[11].veinsmobility totalTime 20
scalar RSUExampleScenario.node[11].veinsmobility stopTime 70
scalar RSUExampleScenario.node[11].veinsmobility minSpeed 11.867230722096
scalar RSUExampleScenario.node[11].veinsmobility maxSpeed 13.042880397311
scalar RSUExampleScenario.node[11].veinsmobility totalDistance 247.6452729218
scalar RSUExampleScenario.node[11].veinsmobility totalCO2Emission 38.928056698871
scalar RSUExampleScenario.node[10].appl generatedWSMs 0
scalar RSUExampleScenario.node[10].appl receivedWSMs 0
scalar RSUExampleScenario.node[10].appl generatedBSMs 0
scalar RSUExampleScenario.node[10].appl receivedBSMs 0
scalar RSUExampleScenario.node[10].appl generatedWSAs 0
scalar RSUExampleScenario.node[10].appl receivedWSAs 0
scalar RSUExampleScenario.node[10].nic.phy80211p busyTime 0
scalar RSUExampleScenario.node[10].nic.mac1609_4 ReceivedUnicastPackets 0
scalar RSUExampleScenario.node[10].nic.mac1609_4 ReceivedBroadcasts 0
scalar RSUExampleScenario.node[10].nic.mac1609_4 SentPackets 0
scalar RSUExampleScenario.node[10].nic.mac1609_4 SentAcknowledgements 0
scalar RSUExampleScenario.node[10].nic.mac1609_4 SNIRLostPackets 0
scalar RSUExampleScenario.node[10].nic.mac1609_4 RXTXLostPackets 0
scalar RSUExampleScenario.node[10].nic.mac1609_4 TotalLostPackets 0
scalar RSUExampleScenario.node[10].nic.mac1609_4 DroppedPacketsInMac 0
scalar RSUExampleScenario.node[10].nic.mac1609_4 TooLittleTime 0
scalar RSUExampleScenario.node[10].nic.mac1609_4 TimesIntoBackoff 0
scalar RSUExampleScenario.node[10].nic.mac1609_4 SlotsBackoff 0
scalar RSUExampleScenario.node[10].nic.mac1609_4 NumInternalContention 0
scalar RSUExampleScenario.node[10].nic.mac1609_4 totalBusyTime 0
scalar RSUExampleScenario.node[10].veinsmobility startTime 49
scalar RSUExampleScenario.node[10].veinsmobility totalTime 23
scalar RSUExampleScenario.node[10].veinsmobility stopTime 73
scalar RSUExampleScenario.node[10].veinsmobility minSpeed 0.0549304929639
scalar RSUExampleScenario.node[10].veinsmobility maxSpeed 15.605888453968
scalar RSUExampleScenario.node[10].veinsmobility totalDistance 246.40020381021
scalar RSUExampleScenario.node[10].veinsmobility totalCO2Emission 73.627668240822
scalar RSUExampleScenario.node[13].appl generatedWSMs 0
scalar RSUExampleScenario.node[13].appl receivedWSMs 0
scalar RSUExampleScenario.node[13].appl generatedBSMs 0
scalar RSUExampleScenario.node[13].appl receivedBSMs 0
scalar RSUExampleScenario.node[13].appl generatedWSAs 0
scalar RSUExampleScenario.node[13].appl receivedWSAs 0
scalar RSUExampleScenario.node[13].nic.phy80211p busyTime 0
scalar RSUExampleScenario.node[13].nic.mac1609_4 ReceivedUnicastPackets 0
scalar RSUExampleScenario.node[13].nic.mac1609_4 ReceivedBroadcasts 0
scalar RSUExampleScenario.node[13].nic.mac1609_4 SentPackets 0
scalar RSUExampleScenario.node[13].nic.mac1609_4 SentAcknowledgements 0
scalar RSUExampleScenario.node[13].nic.mac1609_4 SNIRLostPackets 0
scalar RSUExampleScenario.node[13].nic.mac1609_4 RXTXLostPackets 0
scalar RSUExampleScenario.node[13].nic.mac1609_4 TotalLostPackets 0
scalar RSUExampleScenario.node[13].nic.mac1609_4 DroppedPacketsInMac 0
scalar RSUExampleScenario.node[13].nic.mac1609_4 TooLittleTime 0
scalar RSUExampleScenario.node[13].nic.mac1609_4 TimesIntoBackoff 0
scalar RSUExampleScenario.node[13].nic.mac1609_4 SlotsBackoff 0
scalar RSUExampleScenario.node[13].nic.mac1609_4 NumInternalContention 0
scalar RSUExampleScenario.node[13].nic.mac1609_4 totalBusyTime 0
scalar RSUExampleScenario.node[13].veinsmobility startTime 59
scalar RSUExampleScenario.node[13].veinsmobility totalTime 19
scalar RSUExampleScenario.node[13].veinsmobility stopTime 79
scalar RSUExampleScenario.node[13].veinsmobility minSpeed 12.831683890324
scalar RSUExampleScenario.node[13].veinsmobility maxSpeed 13.617458576488
scalar RSUExampleScenario.node[13].veinsmobility totalDistance 251.16768595174
scalar RSUExampleScenario.node[13].veinsmobility totalCO2Emission 36.302513094533
scalar RSUExampleScenario.node[12].appl generatedWSMs 0
scalar RSUExampleScenario.node[12].appl receivedWSMs 0
scalar RSUExampleScenario.node[12].appl generatedBSMs 0
scalar RSUExampleScenario.node[12].appl receivedBSMs 0
scalar RSUExampleScenario.node[12].appl generatedWSAs 0
scalar RSUExampleScenario.node[12].appl receivedWSAs 0
scalar RSUExampleScenario.node[12].nic.phy80211p busyTime 0
scalar RSUExampleScenario.node[12].nic.mac1609_4 ReceivedUnicastPackets 0
scalar RSUExampleScenario.node[12].nic.mac1609_4 ReceivedBroadcasts 0
scalar RSUExampleScenario.node[12].nic.mac1609_4 SentPackets 0
scalar RSUExampleScenario.node[12].nic.mac1609_4 SentAcknowledgements 0
scalar RSUExampleScenario.node[12].nic.mac1609_4 SNIRLostPackets 0
scalar RSUExampleScenario.node[12].nic.mac1609_4 RXTXLostPackets 0
scalar RSUExampleScenario.node[12].nic.mac1609_4 TotalLostPackets 0
scalar RSUExampleScenario.node[12].nic.mac1609_4 DroppedPacketsInMac 0
scalar RSUExampleScenario.node[12].nic.mac1609_4 TooLittleTime 0
scalar RSUExampleScenario.node[12].nic.mac1609_4 TimesIntoBackoff 0
scalar RSUExampleScenario.node[12].nic.mac1609_4 SlotsBackoff 0
scalar RSUExampleScenario.node[12].nic.mac1609_4 NumInternalContention 0
scalar RSUExampleScenario.node[12].nic.mac1609_4 totalBusyTime 0
scalar RSUExampleScenario.node[12].veinsmobility startTime 59
scalar RSUExampleScenario.node[12].veinsmobility totalTime 22
scalar RSUExampleScenario.node[12].veinsmobility stopTime 82
scalar RSUExampleScenario.node[12].veinsmobility minSpeed 3.3692363151141
scalar RSUExampleScenario.node[12].veinsmobility maxSpeed 12.88090711413
scalar RSUExampleScenario.node[12].veinsmobility totalDistance 241.08771760615
scalar RSUExampleScenario.node[12].veinsmobility totalCO2Emission 63.228857182595
scalar RSUExampleScenario.node[15].appl generatedWSMs 0
scalar RSUExampleScenario.node[15].appl receivedWSMs 0
scalar RSUExampleScenario.node[15].appl generatedBSMs 0
scalar RSUExampleScenario.node[15].appl receivedBSMs 0
scalar RSUExampleScenario.node[15].appl generatedWSAs 0
scalar RSUExampleScenario.node[15].appl receivedWSAs 0
scalar RSUExampleScenario.node[15].nic.phy80211p busyTime 0
scalar RSUExampleScenario.node[15].nic.mac1609_4 ReceivedUnicastPackets 0
scalar RSUExampleScenario.node[15].nic.mac1609_4 ReceivedBroadcasts 0
scalar RSUExampleScenario.node[15].nic.mac1609_4 SentPackets 0
scalar RSUExampleScenario.node[15].nic.mac1609_4 SentAcknowledgements 0
scalar RSUExampleScenario.node[15].nic.mac1609_4 SNIRLostPackets 0
scalar RSUExampleScenario.node[15].nic.mac1609_4 RXTXLostPackets 0
scalar RSUExampleScenario.node[15].nic.mac1609_4 TotalLostPackets 0
scalar RSUExampleScenario.node[15].nic.mac1609_4 DroppedPacketsInMac 0
scalar RSUExampleScenario.node[15].nic.mac1609_4 TooLittleTime 0
scalar RSUExampleScenario.node[15].nic.mac1609_4 TimesIntoBackoff 0
scalar RSUExampleScenario.node[15].nic.mac1609_4 SlotsBackoff 0
scalar RSUExampleScenario.node[15].nic.mac1609_4 NumInternalContention 0
scalar RSUExampleScenario.node[15].nic.mac1609_4 totalBusyTime 0
scalar RSUExampleScenario.node[15].veinsmobility startTime 69
scalar RSUExampleScenario.node[15].veinsmobility totalTime 18
scalar RSUExampleScenario.node[15].veinsmobility stopTime 88
scalar RSUExampleScenario.node[15].veinsmobility minSpeed 13.251539114375
scalar RSUExampleScenario.node[15].veinsmobility maxSpeed 14.431613990293
scalar RSUExampleScenario.node[15].veinsmobility totalDistance 249.25472632229
scalar RSUExampleScenario.node[15].veinsmobility totalCO2Emission 40.413211471888
scalar RSUExampleScenario.node[14].appl generatedWSMs 0
scalar RSUExampleScenario.node[14].appl receivedWSMs 0
scalar RSUExampleScenario.node[14].appl generatedBSMs 0
scalar RSUExampleScenario.node[14].appl receivedBSMs 0
scalar RSUExampleScenario.node[14].appl generatedWSAs 0
scalar RSUExampleScenario.node[14].appl receivedWSAs 0
scalar RSUExampleScenario.node[14].nic.phy80211p busyTime 0
scalar RSUExampleScenario.node[14].nic.mac1609_4 ReceivedUnicastPackets 0
scalar RSUExampleScenario.node[14].nic.mac1609_4 ReceivedBroadcasts 0
scalar RSUExampleScenario.node[14].nic.mac1609_4 SentPackets 0
scalar RSUExampleScenario.node[14].nic.mac1609_4 SentAcknowledgements 0
scalar RSUExampleScenario.node[14].nic.mac1609_4 SNIRLostPackets 0
scalar RSUExampleScenario.node[14].nic.mac1609_4 RXTXLostPackets 0
scalar RSUExampleScenario.node[14].nic.mac1609_4 TotalLostPackets 0
scalar RSUExampleScenario.node[14].nic.mac1609_4 DroppedPacketsInMac 0
scalar RSUExampleScenario.node[14].nic.mac1609_4 TooLittleTime 0
scalar RSUExampleScenario.node[14].nic.mac1609_4 TimesIntoBackoff 0
scalar RSUExampleScenario.node[14].nic.mac1609_4 SlotsBackoff 0
scalar RSUExampleScenario.node[14].nic.mac1609_4 NumInternalContention 0
scalar RSUExampleScenario.node[14].nic.mac1609_4 totalBusyTime 0
scalar RSUExampleScenario.node[14].veinsmobility startTime 69
scalar RSUExampleScenario.node[14].veinsmobility totalTime 22
scalar RSUExampleScenario.node[14].veinsmobility stopTime 92
scalar RSUExampleScenario.node[14].veinsmobility minSpeed 1.3366309037349
scalar RSUExampleScenario.node[14].veinsmobility maxSpeed 14.383921487375
scalar RSUExampleScenario.node[14].veinsmobility totalDistance 238.35570674422
scalar RSUExampleScenario.node[14].veinsmobility totalCO2Emission 64.905481247264
scalar RSUExampleScenario.node[17].appl generatedWSMs 0
scalar RSUExampleScenario.node[17].appl receivedWSMs 0
scalar RSUExampleScenario.node[17].appl generatedBSMs 0
scalar RSUExampleScenario.node[17].appl receivedBSMs 0
scalar RSUExampleScenario.node[17].appl generatedWSAs 0
scalar RSUExampleScenario.node[17].appl receivedWSAs 0
scalar RSUExampleScenario.node[17].nic.phy80211p busyTime 0
scalar RSUExampleScenario.node[17].nic.mac1609_4 ReceivedUnicastPackets 0
scalar RSUExampleScenario.node[17].nic.mac1609_4 ReceivedBroadcasts 0
scalar RSUExampleScenario.node[17].nic.mac1609_4 SentPackets 0
scalar RSUExampleScenario.node[17].nic.mac1609_4 SentAcknowledgements 0
scalar RSUExampleScenario.node[17].nic.mac1609_4 SNIRLostPackets 0
scalar RSUExampleScenario.node[17].nic.mac1609_4 RXTXLostPackets 0
scalar RSUExampleScenario.node[17].nic.mac1609_4 TotalLostPackets 0
scalar RSUExampleScenario.node[17].nic.mac1609_4 DroppedPacketsInMac 0
scalar RSUExampleScenario.node[17].nic.mac1609_4 TooLittleTime 0
scalar RSUExampleScenario.node[17].nic.mac1609_4 TimesIntoBackoff 0
scalar RSUExampleScenario.node[17].nic.mac1609_4 SlotsBackoff 0
scalar RSUExampleScenario.node[17].nic.mac1609_4 NumInternalContention 0
scalar RSUExampleScenario.node[17].nic.mac1609_4 totalBusyTime 0
scalar RSUExampleScenario.node[17].veinsmobility startTime 78
scalar RSUExampleScenario.node[17].veinsmobility totalTime 27
scalar RSUExampleScenario.node[17].veinsmobility stopTime 106
scalar RSUExampleScenario.node[17].veinsmobility minSpeed 8.7856890062475
scalar RSUExampleScenario.node[17].veinsmobility maxSpeed 9.9510507960012
scalar RSUExampleScenario.node[17].veinsmobility totalDistance 254.14409023812
scalar RSUExampleScenario.node[17].veinsmobility totalCO2Emission 46.493914415472
scalar RSUExampleScenario.node[16].appl generatedWSMs 0
scalar RSUExampleScenario.node[16].appl receivedWSMs 0
scalar RSUExampleScenario.node[16].appl generatedBSMs 0
scalar RSUExampleScenario.node[16].appl receivedBSMs 0
scalar RSUExampleScenario.node[16].appl generatedWSAs 0
scalar RSUExampleScenario.node[16].appl receivedWSAs 0
scalar RSUExampleScenario.node[16].nic.phy80211p busyTime 0
scalar RSUExampleScenario.node[16].nic.mac1609_4 ReceivedUnicastPackets 0
scalar RSUExampleScenario.node[16].nic.mac1609_4 ReceivedBroadcasts 0
scalar RSUExampleScenario.node[16].nic.mac1609_4 SentPackets 0
scalar RSUExampleScenario.node[16].nic.mac1609_4 SentAcknowledgements 0
scalar RSUExampleScenario.node[16].nic.mac1609_4 SNIRLostPackets 0
scalar RSUExampleScenario.node[16].nic.mac1609_4 RXTXLostPackets 0
scalar RSUExampleScenario.node[16].nic.mac1609_4 TotalLostPackets 0
scalar RSUExampleScenario.node[16].nic.mac1609_4 DroppedPacketsInMac 0
scalar RSUExampleScenario.node[16].nic.mac1609_4 TooLittleTime 0
scalar RSUExampleScenario.node[16].nic.mac1609_4 TimesIntoBackoff 0
scalar RSUExampleScenario.node[16].nic.mac1609_4 SlotsBackoff 0
scalar RSUExampleScenario.node[16].nic.mac1609_4 NumInternalContention 0
scalar RSUExampleScenario.node[16].nic.mac1609_4 totalBusyTime 0
scalar RSUExampleScenario.node[16].veinsmobility startTime 78
scalar RSUExampleScenario.node[16].veinsmobility totalTime 29
scalar RSUExampleScenario.node[16].veinsmobility stopTime 108
scalar RSUExampleScenario.node[16].veinsmobility minSpeed 0.0013355310955379
scalar RSUExampleScenario.node[16].veinsmobility maxSpeed 14.419130775997
scalar RSUExampleScenario.node[16].veinsmobility totalDistance 246.95155175407
scalar RSUExampleScenario.node[16].veinsmobility totalCO2Emission 75.117896317595
scalar RSUExampleScenario.node[19].appl generatedWSMs 0
scalar RSUExampleScenario.node[19].appl receivedWSMs 0
scalar RSUExampleScenario.node[19].appl generatedBSMs 0
scalar RSUExampleScenario.node[19].appl receivedBSMs 0
scalar RSUExampleScenario.node[19].appl generatedWSAs 0
scalar RSUExampleScenario.node[19].appl receivedWSAs 0
scalar RSUExampleScenario.node[19].nic.phy80211p busyTime 0
scalar RSUExampleScenario.node[19].nic.mac1609_4 ReceivedUnicastPackets 0
scalar RSUExampleScenario.node[19].nic.mac1609_4 ReceivedBroadcasts 0
scalar RSUExampleScenario.node[19].nic.mac1609_4 SentPackets 0
scalar RSUExampleScenario.node[19].nic.mac1609_4 SentAcknowledgements 0
scalar RSUExampleScenario.node[19].nic.mac1609_4 SNIRLostPackets 0
scalar RSUExampleScenario.node[19].nic.mac1609_4 RXTXLostPackets 0
scalar RSUExampleScenario.node[19].nic.mac1609_4 TotalLostPackets 0
scalar RSUExampleScenario.node[19].nic.mac1609_4 DroppedPacketsInMac 0
scalar RSUExampleScenario.node[19].nic.mac1609_4 TooLittleTime 0
scalar RSUExampleScenario.node[19].nic.mac1609_4 TimesIntoBackoff 0
scalar RSUExampleScenario.node[19].nic.mac1609_4 SlotsBackoff 0
scalar RSUExampleScenario.node[19].nic.mac1609_4 NumInternalContention 0
scalar RSUExampleScenario.node[19].nic.mac1609_4 totalBusyTime 0
scalar RSUExampleScenario.node[19].veinsmobility startTime 88
scalar RSUExampleScenario.node[19].veinsmobility totalTime 20
scalar RSUExampleScenario.node[19].veinsmobility stopTime 109
scalar RSUExampleScenario.node[19].veinsmobility minSpeed 11.150336303707
scalar RSUExampleScenario.node[19].veinsmobility maxSpeed 12.89070637541
scalar RSUExampleScenario.node[19].veinsmobility totalDistance 245.31587927432
scalar RSUExampleScenario.node[19].veinsmobility totalCO2Emission 43.512077530124
scalar RSUExampleScenario.node[18].appl generatedWSMs 0
scalar RSUExampleScenario.node[18].appl receivedWSMs 0
scalar RSUExampleScenario.node[18].appl generatedBSMs 0
scalar RSUExampleScenario.node[18].appl receivedBSMs 0
scalar RSUExampleScenario.node[18].appl generatedWSAs 0
scalar RSUExampleScenario.node[18].appl receivedWSAs 0
scalar RSUExampleScenario.node[18].nic.phy80211p busyTime 0
scalar RSUExampleScenario.node[18].nic.mac1609_4 ReceivedUnicastPackets 0
scalar RSUExampleScenario.node[18].nic.mac1609_4 ReceivedBroadcasts 0
scalar RSUExampleScenario.node[18].nic.mac1609_4 SentPackets 0
scalar RSUExampleScenario.node[18].nic.mac1609_4 SentAcknowledgements 0
scalar RSUExampleScenario.node[18].nic.mac1609_4 SNIRLostPackets 0
scalar RSUExampleScenario.node[18].nic.mac1609_4 RXTXLostPackets 0
scalar RSUExampleScenario.node[18].nic.mac1609_4 TotalLostPackets 0
scalar RSUExampleScenario.node[18].nic.mac1609_4 DroppedPacketsInMac 0
scalar RSUExampleScenario.node[18].nic.mac1609_4 TooLittleTime 0
scalar RSUExampleScenario.node[18].nic.mac1609_4 TimesIntoBackoff 0
scalar RSUExampleScenario.node[18].nic.mac1609_4 SlotsBackoff 0
scalar RSUExampleScenario.node[18].nic.mac1609_4 NumInternalContention 0
scalar RSUExampleScenario.node[18].nic.mac1609_4 totalBusyTime 0
scalar RSUExampleScenario.node[18].veinsmobility startTime 88
scalar RSUExampleScenario.node[18].veinsmobility totalTime 23
scalar RSUExampleScenario.node[18].veinsmobility stopTime 112
scalar RSUExampleScenario.node[18].veinsmobility minSpeed 0.62010345685576
scalar RSUExampleScenario.node[18].veinsmobility maxSpeed 15.287192930009
scalar RSUExampleScenario.node[18].veinsmobility totalDistance 245.97207536366
scalar RSUExampleScenario.node[18].veinsmobility totalCO2Emission 73.819336562551
scalar RSUExampleScenario.node[21].appl generatedWSMs 0
scalar RSUExampleScenario.node[21].appl receivedWSMs 0
scalar RSUExampleScenario.node[21].appl generatedBSMs 0
scalar RSUExampleScenario.node[21].appl receivedBSMs 0
scalar RSUExampleScenario.node[21].appl generatedWSAs 0
scalar RSUExampleScenario.node[21].appl receivedWSAs 0
scalar RSUExampleScenario.node[21].nic.phy80211p busyTime 0
scalar RSUExampleScenario.node[21].nic.mac1609_4 ReceivedUnicastPackets 0
scalar RSUExampleScenario.node[21].nic.mac1609_4 ReceivedBroadcasts 0
scalar RSUExampleScenario.node[21].nic.mac1609_4 SentPackets 0
scalar RSUExampleScenario.node[21].nic.mac1609_4 SentAcknowledgements 0
scalar RSUExampleScenario.node[21].nic.mac1609_4 SNIRLostPackets 0
scalar RSUExampleScenario.node[21].nic.mac1609_4 RXTXLostPackets 0
scalar RSUExampleScenario.node[21].nic.mac1609_4 TotalLostPackets 0
scalar RSUExampleScenario.node[21].nic.mac1609_4 DroppedPacketsInMac 0
scalar RSUExampleScenario.node[21].nic.mac1609_4 TooLittleTime 0
scalar RSUExampleScenario.node[21].nic.mac1609_4 TimesIntoBackoff 0
scalar RSUExampleScenario.node[21].nic.mac1609_4 SlotsBackoff 0
scalar RSUExampleScenario.node[21].nic.mac1609_4 NumInternalContention 0
scalar RSUExampleScenario.node[21].nic.mac1609_4 totalBusyTime 0
scalar RSUExampleScenario.node[21].veinsmobility startTime 97
scalar RSUExampleScenario.node[21].veinsmobility totalTime 22
scalar RSUExampleScenario.node[21].veinsmobility stopTime 120
scalar RSUExampleScenario.node[21].veinsmobility minSpeed 11.005839533586
scalar RSUExampleScenario.node[21].veinsmobility maxSpeed 12.276323054306
scalar RSUExampleScenario.node[21].veinsmobility totalDistance 253.20266943878
scalar RSUExampleScenario.node[21].veinsmobility totalCO2Emission 43.609675773663
scalar RSUExampleScenario.node[20].appl generatedWSMs 0
scalar RSUExampleScenario.node[20].appl receivedWSMs 0
scalar RSUExampleScenario.node[20].appl generatedBSMs 0
scalar RSUExampleScenario.node[20].appl receivedBSMs 0
scalar RSUExampleScenario.node[20].appl generatedWSAs 0
scalar RSUExampleScenario.node[20].appl receivedWSAs 0
scalar RSUExampleScenario.node[20].nic.phy80211p busyTime 0
scalar RSUExampleScenario.node[20].nic.mac1609_4 ReceivedUnicastPackets 0
scalar RSUExampleScenario.node[20].nic.mac1609_4 ReceivedBroadcasts 0
scalar RSUExampleScenario.node[20].nic.mac1609_4 SentPackets 0
scalar RSUExampleScenario.node[20].nic.mac1609_4 SentAcknowledgements 0
scalar RSUExampleScenario.node[20].nic.mac1609_4 SNIRLostPackets 0
scalar RSUExampleScenario.node[20].nic.mac1609_4 RXTXLostPackets 0
scalar RSUExampleScenario.node[20].nic.mac1609_4 TotalLostPackets 0
scalar RSUExampleScenario.node[20].nic.mac1609_4 DroppedPacketsInMac 0
scalar RSUExampleScenario.node[20].nic.mac1609_4 TooLittleTime 0
scalar RSUExampleScenario.node[20].nic.mac1609_4 TimesIntoBackoff 0
scalar RSUExampleScenario.node[20].nic.mac1609_4 SlotsBackoff 0
scalar RSUExampleScenario.node[20].nic.mac1609_4 NumInternalContention 0
scalar RSUExampleScenario.node[20].nic.mac1609_4 totalBusyTime 0
scalar RSUExampleScenario.node[20].veinsmobility startTime 97
scalar RSUExampleScenario.node[20].veinsmobility totalTime 24
scalar RSUExampleScenario.node[20].veinsmobility stopTime 122
scalar RSUExampleScenario.node[20].veinsmobility minSpeed 0.1452770352439
scalar RSUExampleScenario.node[20].veinsmobility maxSpeed 15.962103546088
scalar RSUExampleScenario.node[20].veinsmobility totalDistance 246.56909107337
scalar RSUExampleScenario.node[20].veinsmobility totalCO2Emission 78.052543259263
scalar RSUExampleScenario.node[23].appl generatedWSMs 0
scalar RSUExampleScenario.node[23].appl receivedWSMs 0
scalar RSUExampleScenario.node[23].appl generatedBSMs 0
scalar RSUExampleScenario.node[23].appl receivedBSMs 0
scalar RSUExampleScenario.node[23].appl generatedWSAs 0
scalar RSUExampleScenario.node[23].appl receivedWSAs 0
scalar RSUExampleScenario.node[23].nic.phy80211p busyTime 0
scalar RSUExampleScenario.node[23].nic.mac1609_4 ReceivedUnicastPackets 0
scalar RSUExampleScenario.node[23].nic.mac1609_4 ReceivedBroadcasts 0
scalar RSUExampleScenario.node[23].nic.mac1609_4 SentPackets 0
scalar RSUExampleScenario.node[23].nic.mac1609_4 SentAcknowledgements 0
scalar RSUExampleScenario.node[23].nic.mac1609_4 SNIRLostPackets 0
scalar RSUExampleScenario.node[23].nic.mac1609_4 RXTXLostPackets 0
scalar RSUExampleScenario.node[23].nic.mac1609_4 TotalLostPackets 0
scalar RSUExampleScenario.node[23].nic.mac1609_4 DroppedPacketsInMac 0
scalar RSUExampleScenario.node[23].nic.mac1609_4 TooLittleTime 0
scalar RSUExampleScenario.node[23].nic.mac1609_4 TimesIntoBackoff 0
scalar RSUExampleScenario.node[23].nic.mac1609_4 SlotsBackoff 0
scalar RSUExampleScenario.node[23].nic.mac1609_4 NumInternalContention 0
scalar RSUExampleScenario.node[23].nic.mac1609_4 totalBusyTime 0
scalar RSUExampleScenario.node[23].veinsmobility startTime 107
scalar RSUExampleScenario.node[23].veinsmobility totalTime 26
scalar RSUExampleScenario.node[23].veinsmobility stopTime 134
scalar RSUExampleScenario.node[23].veinsmobility minSpeed 9.2478043149553
scalar RSUExampleScenario.node[23].veinsmobility maxSpeed 10.398888095082
scalar RSUExampleScenario.node[23].veinsmobility totalDistance 253.99148996311
scalar RSUExampleScenario.node[23].veinsmobility totalCO2Emission 46.644416497742
scalar RSUExampleScenario.node[22].appl generatedWSMs 0
scalar RSUExampleScenario.node[22].appl receivedWSMs 0
scalar RSUExampleScenario.node[22].appl generatedBSMs 0
scalar RSUExampleScenario.node[22].appl receivedBSMs 0
scalar RSUExampleScenario.node[22].appl generatedWSAs 0
scalar RSUExampleScenario.node[22].appl receivedWSAs 0
scalar RSUExampleScenario.node[22].nic.phy80211p busyTime 0
scalar RSUExampleScenario.node[22].nic.mac1609_4 ReceivedUnicastPackets 0
scalar RSUExampleScenario.node[22].nic.mac1609_4 ReceivedBroadcasts 0
scalar RSUExampleScenario.node[22].nic.mac1609_4 SentPackets 0
scalar RSUExampleScenario.node[22].nic.mac1609_4 SentAcknowledgements 0
scalar RSUExampleScenario.node[22].nic.mac1609_4 SNIRLostPackets 0
scalar RSUExampleScenario.node[22].nic.mac1609_4 RXTXLostPackets 0
scalar RSUExampleScenario.node[22].nic.mac1609_4 TotalLostPackets 0
scalar RSUExampleScenario.node[22].nic.mac1609_4 DroppedPacketsInMac 0
scalar RSUExampleScenario.node[22].nic.mac1609_4 TooLittleTime 0
scalar RSUExampleScenario.node[22].nic.mac1609_4 TimesIntoBackoff 0
scalar RSUExampleScenario.node[22].nic.mac1609_4 SlotsBackoff 0
scalar RSUExampleScenario.node[22].nic.mac1609_4 NumInternalContention 0
scalar RSUExampleScenario.node[22].nic.mac1609_4 totalBusyTime 0
scalar RSUExampleScenario.node[22].veinsmobility startTime 107
scalar RSUExampleScenario.node[22].veinsmobility totalTime 28
scalar RSUExampleScenario.node[22].veinsmobility stopTime 136
scalar RSUExampleScenario.node[22].veinsmobility minSpeed 0.010519850138275
scalar RSUExampleScenario.node[22].veinsmobility maxSpeed 13.553611032029
scalar RSUExampleScenario.node[22].veinsmobility totalDistance 246.28684557108
scalar RSUExampleScenario.node[22].veinsmobility totalCO2Emission 68.471241370212
scalar RSUExampleScenario.node[25].appl generatedWSMs 0
scalar RSUExampleScenario.node[25].appl receivedWSMs 0
scalar RSUExampleScenario.node[25].appl generatedBSMs 0
scalar RSUExampleScenario.node[25].appl receivedBSMs 0
scalar RSUExampleScenario.node[25].appl generatedWSAs 0
scalar RSUExampleScenario.node[25].appl receivedWSAs 0
scalar RSUExampleScenario.node[25].nic.phy80211p busyTime 0
scalar RSUExampleScenario.node[25].nic.mac1609_4 ReceivedUnicastPackets 0
scalar RSUExampleScenario.node[25].nic.mac1609_4 ReceivedBroadcasts 0
scalar RSUExampleScenario.node[25].nic.mac1609_4 SentPackets 0
scalar RSUExampleScenario.node[25].nic.mac1609_4 SentAcknowledgements 0
scalar RSUExampleScenario.node[25].nic.mac1609_4 SNIRLostPackets 0
scalar RSUExampleScenario.node[25].nic.mac1609_4 RXTXLostPackets 0
scalar RSUExampleScenario.node[25].nic.mac1609_4 TotalLostPackets 0
scalar RSUExampleScenario.node[25].nic.mac1609_4 DroppedPacketsInMac 0
scalar RSUExampleScenario.node[25].nic.mac1609_4 TooLittleTime 0
scalar RSUExampleScenario.node[25].nic.mac1609_4 TimesIntoBackoff 0
scalar RSUExampleScenario.node[25].nic.mac1609_4 SlotsBackoff 0
scalar RSUExampleScenario.node[25].nic.mac1609_4 NumInternalContention 0
scalar RSUExampleScenario.node[25].nic.mac1609_4 totalBusyTime 0
scalar RSUExampleScenario.node[25].veinsmobility startTime 117
scalar RSUExampleScenario.node[25].veinsmobility totalTime 19
scalar RSUExampleScenario.node[25].veinsmobility stopTime 137
scalar RSUExampleScenario.node[25].veinsmobility minSpeed 10.215772909728
scalar RSUExampleScenario.node[25].veinsmobility maxSpeed 14.975878778338
scalar RSUExampleScenario.node[25].veinsmobility totalDistance 246.97611507835
scalar RSUExampleScenario.node[25].veinsmobility totalCO2Emission 45.224685320925
scalar RSUExampleScenario.node[24].appl generatedWSMs 0
scalar RSUExampleScenario.node[24].appl receivedWSMs 0
scalar RSUExampleScenario.node[24].appl generatedBSMs 0
scalar RSUExampleScenario.node[24].appl receivedBSMs 0
scalar RSUExampleScenario.node[24].appl generatedWSAs 0
scalar RSUExampleScenario.node[24].appl receivedWSAs 0
scalar RSUExampleScenario.node[24].nic.phy80211p busyTime 0
scalar RSUExampleScenario.node[24].nic.mac1609_4 ReceivedUnicastPackets 0
scalar RSUExampleScenario.node[24].nic.mac1609_4 ReceivedBroadcasts 0
scalar RSUExampleScenario.node[24].nic.mac1609_4 SentPackets 0
scalar RSUExampleScenario.node[24].nic.mac1609_4 SentAcknowledgements 0
scalar RSUExampleScenario.node[24].nic.mac1609_4 SNIRLostPackets 0
scalar RSUExampleScenario.node[24].nic.mac1609_4 RXTXLostPackets 0
scalar RSUExampleScenario.node[24].nic.mac1609_4 TotalLostPackets 0
scalar RSUExampleScenario.node[24].nic.mac1609_4 DroppedPacketsInMac 0
scalar RSUExampleScenario.node[24].nic.mac1609_4 TooLittleTime 0
scalar RSUExampleScenario.node[24].nic.mac1609_4 TimesIntoBackoff 0
scalar RSUExampleScenario.node[24].nic.mac1609_4 SlotsBackoff 0
scalar RSUExampleScenario.node[24].nic.mac1609_4 NumInternalContention 0
scalar RSUExampleScenario.node[24].nic.mac1609_4 totalBusyTime 0
scalar RSUExampleScenario.node[24].veinsmobility startTime 117
scalar RSUExampleScenario.node[24].veinsmobility totalTime 21
scalar RSUExampleScenario.node[24].veinsmobility stopTime 139
scalar RSUExampleScenario.node[24].veinsmobility minSpeed 7.7725392949518
scalar RSUExampleScenario.node[24].veinsmobility maxSpeed 12.882819165278
scalar RSUExampleScenario.node[24].veinsmobility totalDistance 239.40557479457
scalar RSUExampleScenario.node[24].veinsmobility totalCO2Emission 51.397103185927
scalar RSUExampleScenario.node[27].appl generatedWSMs 0
scalar RSUExampleScenario.node[27].appl receivedWSMs 0
scalar RSUExampleScenario.node[27].appl generatedBSMs 0
scalar RSUExampleScenario.node[27].appl receivedBSMs 0
scalar RSUExampleScenario.node[27].appl generatedWSAs 0
scalar RSUExampleScenario.node[27].appl receivedWSAs 0
scalar RSUExampleScenario.node[27].nic.phy80211p busyTime 0
scalar RSUExampleScenario.node[27].nic.mac1609_4 ReceivedUnicastPackets 0
scalar RSUExampleScenario.node[27].nic.mac1609_4 ReceivedBroadcasts 0
scalar RSUExampleScenario.node[27].nic.mac1609_4 SentPackets 0
scalar RSUExampleScenario.node[27].nic.mac1609_4 SentAcknowledgements 0
scalar RSUExampleScenario.node[27].nic.mac1609_4 SNIRLostPackets 0
scalar RSUExampleScenario.node[27].nic.mac1609_4 RXTXLostPackets 0
scalar RSUExampleScenario.node[27].nic.mac1609_4 TotalLostPackets 0
scalar RSUExampleScenario.node[27].nic.mac1609_4 DroppedPacketsInMac 0
scalar RSUExampleScenario.node[27].nic.mac1609_4 TooLittleTime 0
scalar RSUExampleScenario.node[27].nic.mac1609_4 TimesIntoBackoff 0
scalar RSUExampleScenario.node[27].nic.mac1609_4 SlotsBackoff 0
scalar RSUExampleScenario.node[27].nic.mac1609_4 NumInternalContention 0
scalar RSUExampleScenario.node[27].nic.mac1609_4 totalBusyTime 0
scalar RSUExampleScenario.node[27].veinsmobility startTime 126
scalar RSUExampleScenario.node[27].veinsmobility totalTime 19
scalar RSUExampleScenario.node[27].veinsmobility stopTime 146
scalar RSUExampleScenario.node[27].veinsmobility minSpeed 12.916864634328
scalar RSUExampleScenario.node[27].veinsmobility maxSpeed 14.134263151604
scalar RSUExampleScenario.node[27].veinsmobility totalDistance 254.60006821491
scalar RSUExampleScenario.node[27].veinsmobility totalCO2Emission 42.176758604491
scalar RSUExampleScenario.node[26].appl generatedWSMs 0
scalar RSUExampleScenario.node[26].appl receivedWSMs 0
scalar RSUExampleScenario.node[26].appl generatedBSMs 0
scalar RSUExampleScenario.node[26].appl receivedBSMs 0
scalar RSUExampleScenario.node[26].appl generatedWSAs 0
scalar RSUExampleScenario.node[26].appl receivedWSAs 0
scalar RSUExampleScenario.node[26].nic.phy80211p busyTime 0
scalar RSUExampleScenario.node[26].nic.mac1609_4 ReceivedUnicastPackets 0
scalar RSUExampleScenario.node[26].nic.mac1609_4 ReceivedBroadcasts 0
scalar RSUExampleScenario.node[26].nic.mac1609_4 SentPackets 0
scalar RSUExampleScenario.node[26].nic.mac1609_4 SentAcknowledgements 0
scalar RSUExampleScenario.node[26].nic.mac1609_4 SNIRLostPackets 0
scalar RSUExampleScenario.node[26].nic.mac1609_4 RXTXLostPackets 0
scalar RSUExampleScenario.node[26].nic.mac1609_4 TotalLostPackets 0
scalar RSUExampleScenario.node[26].nic.mac1609_4 DroppedPacketsInMac 0
scalar RSUExampleScenario.node[26].nic.mac1609_4 TooLittleTime 0
scalar RSUExampleScenario.node[26].nic.mac1609_4 TimesIntoBackoff 0
scalar RSUExampleScenario.node[26].nic.mac1609_4 SlotsBackoff 0
scalar RSUExampleScenario.node[26].nic.mac1609_4 NumInternalContention 0
scalar RSUExampleScenario.node[26].nic.mac1609_4 totalBusyTime 0
scalar RSUExampleScenario.node[26].veinsmobility startTime 126
scalar RSUExampleScenario.node[26].veinsmobility totalTime 22
scalar RSUExampleScenario.node[26].veinsmobility stopTime 149
scalar RSUExampleScenario.node[26].veinsmobility minSpeed 2.6619260143292
scalar RSUExampleScenario.node[26].veinsmobility maxSpeed 13.545795411374
scalar RSUExampleScenario.node[26].veinsmobility totalDistance 239.29308160531
scalar RSUExampleScenario.node[26].veinsmobility totalCO2Emission 62.492260224476
scalar RSUExampleScenario.node[29].appl generatedWSMs 0
scalar RSUExampleScenario.node[29].appl receivedWSMs 0
scalar RSUExampleScenario.node[29].appl generatedBSMs 0
scalar RSUExampleScenario.node[29].appl receivedBSMs 0
scalar RSUExampleScenario.node[29].appl generatedWSAs 0
scalar RSUExampleScenario.node[29].appl receivedWSAs 0
scalar RSUExampleScenario.node[29].nic.phy80211p busyTime 0
scalar RSUExampleScenario.node[29].nic.mac1609_4 ReceivedUnicastPackets 0
scalar RSUExampleScenario.node[29].nic.mac1609_4 ReceivedBroadcasts 0
scalar RSUExampleScenario.node[29].nic.mac1609_4 SentPackets 0
scalar RSUExampleScenario.node[29].nic.mac1609_4 SentAcknowledgements 0
scalar RSUExampleScenario.node[29].nic.mac1609_4 SNIRLostPackets 0
scalar RSUExampleScenario.node[29].nic.mac1609_4 RXTXLostPackets 0
scalar RSUExampleScenario.node[29].nic.mac1609_4 TotalLostPackets 0
scalar RSUExampleScenario.node[29].nic.mac1609_4 DroppedPacketsInMac 0
scalar RSUExampleScenario.node[29].nic.mac1609_4 TooLittleTime 0
scalar RSUExampleScenario.node[29].nic.mac1609_4 TimesIntoBackoff 0
scalar RSUExampleScenario.node[29].nic.mac1609_4 SlotsBackoff 0
scalar RSUExampleScenario.node[29].nic.mac1609_4 NumInternalContention 0
scalar RSUExampleScenario.node[29].nic.mac1609_4 totalBusyTime 0
scalar RSUExampleScenario.node[29].veinsmobility startTime 136
scalar RSUExampleScenario.node[29].veinsmobility totalTime 18
scalar RSUExampleScenario.node[29].veinsmobility stopTime 155
scalar RSUExampleScenario.node[29].veinsmobility minSpeed 13.342568785659
scalar RSUExampleScenario.node[29].veinsmobility maxSpeed 14.547288720458
scalar RSUExampleScenario.node[29].veinsmobility totalDistance 246.90976250008
scalar RSUExampleScenario.node[29].veinsmobility totalCO2Emission 39.601010369525
scalar RSUExampleScenario.node[28].appl generatedWSMs 0
scalar RSUExampleScenario.node[28].appl receivedWSMs 0
scalar RSUExampleScenario.node[28].appl generatedBSMs 0
scalar RSUExampleScenario.node[28].appl receivedBSMs 0
scalar RSUExampleScenario.node[28].appl generatedWSAs 0
scalar RSUExampleScenario.node[28].appl receivedWSAs 0
scalar RSUExampleScenario.node[28].nic.phy80211p busyTime 0
scalar RSUExampleScenario.node[28].nic.mac1609_4 ReceivedUnicastPackets 0
scalar RSUExampleScenario.node[28].nic.mac1609_4 ReceivedBroadcasts 0
scalar RSUExampleScenario.node[28].nic.mac1609_4 SentPackets 0
scalar RSUExampleScenario.node[28].nic.mac1609_4 SentAcknowledgements 0
scalar RSUExampleScenario.node[28].nic.mac1609_4 SNIRLostPackets 0
scalar RSUExampleScenario.node[28].nic.mac1609_4 RXTXLostPackets 0
scalar RSUExampleScenario.node[28].nic.mac1609_4 TotalLostPackets 0
scalar RSUExampleScenario.node[28].nic.mac1609_4 DroppedPacketsInMac 0
scalar RSUExampleScenario.node[28].nic.mac1609_4 TooLittleTime 0
scalar RSUExampleScenario.node[28].nic.mac1609_4 TimesIntoBackoff 0
scalar RSUExampleScenario.node[28].nic.mac1609_4 SlotsBackoff 0
scalar RSUExampleScenario.node[28].nic.mac1609_4 NumInternalContention 0
scalar RSUExampleScenario.node[28].nic.mac1609_4 totalBusyTime 0
scalar RSUExampleScenario.node[28].veinsmobility startTime 136
scalar RSUExampleScenario.node[28].veinsmobility totalTime 22
scalar RSUExampleScenario.node[28].veinsmobility stopTime 159
scalar RSUExampleScenario.node[28].veinsmobility minSpeed 0.99206191173289
scalar RSUExampleScenario.node[28].veinsmobility maxSpeed 14.354797342111
scalar RSUExampleScenario.node[28].veinsmobility totalDistance 246.43710765515
scalar RSUExampleScenario.node[28].veinsmobility totalCO2Emission 67.813001976287
scalar RSUExampleScenario.node[31].appl generatedWSMs 0
scalar RSUExampleScenario.node[31].appl receivedWSMs 0
scalar RSUExampleScenario.node[31].appl generatedBSMs 0
scalar RSUExampleScenario.node[31].appl receivedBSMs 0
scalar RSUExampleScenario.node[31].appl generatedWSAs 0
scalar RSUExampleScenario.node[31].appl receivedWSAs 0
scalar RSUExampleScenario.node[31].nic.phy80211p busyTime 0
scalar RSUExampleScenario.node[31].nic.mac1609_4 ReceivedUnicastPackets 0
scalar RSUExampleScenario.node[31].nic.mac1609_4 ReceivedBroadcasts 0
scalar RSUExampleScenario.node[31].nic.mac1609_4 SentPackets 0
scalar RSUExampleScenario.node[31].nic.mac1609_4 SentAcknowledgements 0
scalar RSUExampleScenario.node[31].nic.mac1609_4 SNIRLostPackets 0
scalar RSUExampleScenario.node[31].nic.mac1609_4 RXTXLostPackets 0
scalar RSUExampleScenario.node[31].nic.mac1609_4 TotalLostPackets 0
scalar RSUExampleScenario.node[31].nic.mac1609_4 DroppedPacketsInMac 0
scalar RSUExampleScenario.node[31].nic.mac1609_4 TooLittleTime 0
scalar RSUExampleScenario.node[31].nic.mac1609_4 TimesIntoBackoff 0
scalar RSUExampleScenario.node[31].nic.mac1609_4 SlotsBackoff 0
scalar RSUExampleScenario.node[31].nic.mac1609_4 NumInternalContention 0
scalar RSUExampleScenario.node[31].nic.mac1609_4 totalBusyTime 0
scalar RSUExampleScenario.node[31].veinsmobility startTime 145
scalar RSUExampleScenario.node[31].veinsmobility totalTime 16
scalar RSUExampleScenario.node[31].veinsmobility stopTime 162
scalar RSUExampleScenario.node[31].veinsmobility minSpeed 15.385522929899
scalar RSUExampleScenario.node[31].veinsmobility maxSpeed 16.496071835369
scalar RSUExampleScenario.node[31].veinsmobility totalDistance 254.32632529037
scalar RSUExampleScenario.node[31].veinsmobility totalCO2Emission 37.458814523622
scalar RSUExampleScenario.node[30].appl generatedWSMs 0
scalar RSUExampleScenario.node[30].appl receivedWSMs 0
scalar RSUExampleScenario.node[30].appl generatedBSMs 0
scalar RSUExampleScenario.node[30].appl receivedBSMs 0
scalar RSUExampleScenario.node[30].appl generatedWSAs 0
scalar RSUExampleScenario.node[30].appl receivedWSAs 0
scalar RSUExampleScenario.node[30].nic.phy80211p busyTime 0
scalar RSUExampleScenario.node[30].nic.mac1609_4 ReceivedUnicastPackets 0
scalar RSUExampleScenario.node[30].nic.mac1609_4 ReceivedBroadcasts 0
scalar RSUExampleScenario.node[30].nic.mac1609_4 SentPackets 0
scalar RSUExampleScenario.node[30].nic.mac1609_4 SentAcknowledgements 0
scalar RSUExampleScenario.node[30].nic.mac1609_4 SNIRLostPackets 0
scalar RSUExampleScenario.node[30].nic.mac1609_4 RXTXLostPackets 0
scalar RSUExampleScenario.node[30].nic.mac1609_4 TotalLostPackets 0
scalar RSUExampleScenario.node[30].nic.mac1609_4 DroppedPacketsInMac 0
scalar RSUExampleScenario.node[30].nic.mac1609_4 TooLittleTime 0
scalar RSUExampleScenario.node[30].nic.mac1609_4 TimesIntoBackoff 0
scalar RSUExampleScenario.node[30].nic.mac1609_4 SlotsBackoff 0
scalar RSUExampleScenario.node[30].nic.mac1609_4 NumInternalContention 0
scalar RSUExampleScenario.node[30].nic.mac1609_4 totalBusyTime 0
scalar RSUExampleScenario.node[30].veinsmobility startTime 145
scalar RSUExampleScenario.node[30].veinsmobility totalTime 18
scalar RSUExampleScenario.node[30].veinsmobility stopTime 164
scalar RSUExampleScenario.node[30].veinsmobility minSpeed 4.4318314654047
scalar RSUExampleScenario.node[30].veinsmobility maxSpeed 15.885964521982
scalar RSUExampleScenario.node[30].veinsmobility totalDistance 233.42903351625
scalar RSUExampleScenario.node[30].veinsmobility totalCO2Emission 69.49500329123
scalar RSUExampleScenario.node[33].appl generatedWSMs 0
scalar RSUExampleScenario.node[33].appl receivedWSMs 0
scalar RSUExampleScenario.node[33].appl generatedBSMs 0
scalar RSUExampleScenario.node[33].appl receivedBSMs 0
scalar RSUExampleScenario.node[33].appl generatedWSAs 0
scalar RSUExampleScenario.node[33].appl receivedWSAs 0
scalar RSUExampleScenario.node[33].nic.phy80211p busyTime 0
scalar RSUExampleScenario.node[33].nic.mac1609_4 ReceivedUnicastPackets 0
scalar RSUExampleScenario.node[33].nic.mac1609_4 ReceivedBroadcasts 0
scalar RSUExampleScenario.node[33].nic.mac1609_4 SentPackets 0
scalar RSUExampleScenario.node[33].nic.mac1609_4 SentAcknowledgements 0
scalar RSUExampleScenario.node[33].nic.mac1609_4 SNIRLostPackets 0
scalar RSUExampleScenario.node[33].nic.mac1609_4 RXTXLostPackets 0
scalar RSUExampleScenario.node[33].nic.mac1609_4 TotalLostPackets 0
scalar RSUExampleScenario.node[33].nic.mac1609_4 DroppedPacketsInMac 0
scalar RSUExampleScenario.node[33].nic.mac1609_4 TooLittleTime 0
scalar RSUExampleScenario.node[33].nic.mac1609_4 TimesIntoBackoff 0
scalar RSUExampleScenario.node[33].nic.mac1609_4 SlotsBackoff 0
scalar RSUExampleScenario.node[33].nic.mac1609_4 NumInternalContention 0
scalar RSUExampleScenario.node[33].nic.mac1609_4 totalBusyTime 0
scalar RSUExampleScenario.node[33].veinsmobility startTime 155
scalar RSUExampleScenario.node[33].veinsmobility totalTime 19
scalar RSUExampleScenario.node[33].veinsmobility stopTime 175
scalar RSUExampleScenario.node[33].veinsmobility minSpeed 12.407567911709
scalar RSUExampleScenario.node[33].veinsmobility maxSpeed 13.636048085054
scalar RSUExampleScenario.node[33].veinsmobility totalDistance 247.80717658662
scalar RSUExampleScenario.node[33].veinsmobility totalCO2Emission 42.36146144757
scalar RSUExampleScenario.node[32].appl generatedWSMs 0
scalar RSUExampleScenario.node[32].appl receivedWSMs 0
scalar RSUExampleScenario.node[32].appl generatedBSMs 0
scalar RSUExampleScenario.node[32].appl receivedBSMs 0
scalar RSUExampleScenario.node[32].appl generatedWSAs 0
scalar RSUExampleScenario.node[32].appl receivedWSAs 0
scalar RSUExampleScenario.node[32].nic.phy80211p busyTime 0
scalar RSUExampleScenario.node[32].nic.mac1609_4 ReceivedUnicastPackets 0
scalar RSUExampleScenario.node[32].nic.mac1609_4 ReceivedBroadcasts 0
scalar RSUExampleScenario.node[32].nic.mac1609_4 SentPackets 0
scalar RSUExampleScenario.node[32].nic.mac1609_4 SentAcknowledgements 0
scalar RSUExampleScenario.node[32].nic.mac1609_4 SNIRLostPackets 0
scalar RSUExampleScenario.node[32].nic.mac1609_4 RXTXLostPackets 0
scalar RSUExampleScenario.node[32].nic.mac1609_4 TotalLostPackets 0
scalar RSUExampleScenario.node[32].nic.mac1609_4 DroppedPacketsInMac 0
scalar RSUExampleScenario.node[32].nic.mac1609_4 TooLittleTime 0
scalar RSUExampleScenario.node[32].nic.mac1609_4 TimesIntoBackoff 0
scalar RSUExampleScenario.node[32].nic.mac1609_4 SlotsBackoff 0
scalar RSUExampleScenario.node[32].nic.mac1609_4 NumInternalContention 0
scalar RSUExampleScenario.node[32].nic.mac1609_4 totalBusyTime 0
scalar RSUExampleScenario.node[32].veinsmobility startTime 155
scalar RSUExampleScenario.node[32].veinsmobility totalTime 23
scalar RSUExampleScenario.node[32].veinsmobility stopTime 179
scalar RSUExampleScenario.node[32].veinsmobility minSpeed 5.9947817983003
scalar RSUExampleScenario.node[32].veinsmobility maxSpeed 11.647388304668
scalar RSUExampleScenario.node[32].veinsmobility totalDistance 245.06105625342
scalar RSUExampleScenario.node[32].veinsmobility totalCO2Emission 52.523854954053
scalar RSUExampleScenario.node[35].appl generatedWSMs 0
scalar RSUExampleScenario.node[35].appl receivedWSMs 0
scalar RSUExampleScenario.node[35].appl generatedBSMs 0
scalar RSUExampleScenario.node[35].appl receivedBSMs 0
scalar RSUExampleScenario.node[35].appl generatedWSAs 0
scalar RSUExampleScenario.node[35].appl receivedWSAs 0
scalar RSUExampleScenario.node[35].nic.phy80211p busyTime 0
scalar RSUExampleScenario.node[35].nic.mac1609_4 ReceivedUnicastPackets 0
scalar RSUExampleScenario.node[35].nic.mac1609_4 ReceivedBroadcasts 0
scalar RSUExampleScenario.node[35].nic.mac1609_4 SentPackets 0
scalar RSUExampleScenario.node[35].nic.mac1609_4 SentAcknowledgements 0
scalar RSUExampleScenario.node[35].nic.mac1609_4 SNIRLostPackets 0
scalar RSUExampleScenario.node[35].nic.mac1609_4 RXTXLostPackets 0
scalar RSUExampleScenario.node[35].nic.mac1609_4 TotalLostPackets 0
scalar RSUExampleScenario.node[35].nic.mac1609_4 DroppedPacketsInMac 0
scalar RSUExampleScenario.node[35].nic.mac1609_4 TooLittleTime 0
scalar RSUExampleScenario.node[35].nic.mac1609_4 TimesIntoBackoff 0
scalar RSUExampleScenario.node[35].nic.mac1609_4 SlotsBackoff 0
scalar RSUExampleScenario.node[35].nic.mac1609_4 NumInternalContention 0
scalar RSUExampleScenario.node[35].nic.mac1609_4 totalBusyTime 0
scalar RSUExampleScenario.node[35].veinsmobility startTime 165
scalar RSUExampleScenario.node[35].veinsmobility totalTime 17
scalar RSUExampleScenario.node[35].veinsmobility stopTime 183
scalar RSUExampleScenario.node[35].veinsmobility minSpeed 14.433150428988
scalar RSUExampleScenario.node[35].veinsmobility maxSpeed 15.643084560626
scalar RSUExampleScenario.node[35].veinsmobility totalDistance 253.40196459388
scalar RSUExampleScenario.node[35].veinsmobility totalCO2Emission 41.795863972669
scalar RSUExampleScenario.node[34].appl generatedWSMs 0
scalar RSUExampleScenario.node[34].appl receivedWSMs 0
scalar RSUExampleScenario.node[34].appl generatedBSMs 0
scalar RSUExampleScenario.node[34].appl receivedBSMs 0
scalar RSUExampleScenario.node[34].appl generatedWSAs 0
scalar RSUExampleScenario.node[34].appl receivedWSAs 0
scalar RSUExampleScenario.node[34].nic.phy80211p busyTime 0
scalar RSUExampleScenario.node[34].nic.mac1609_4 ReceivedUnicastPackets 0
scalar RSUExampleScenario.node[34].nic.mac1609_4 ReceivedBroadcasts 0
scalar RSUExampleScenario.node[34].nic.mac1609_4 SentPackets 0
scalar RSUExampleScenario.node[34].nic.mac1609_4 SentAcknowledgements 0
scalar RSUExampleScenario.node[34].nic.mac1609_4 SNIRLostPackets 0
scalar RSUExampleScenario.node[34].nic.mac1609_4 RXTXLostPackets 0
scalar RSUExampleScenario.node[34].nic.mac1609_4 TotalLostPackets 0
scalar RSUExampleScenario.node[34].nic.mac1609_4 DroppedPacketsInMac 0
scalar RSUExampleScenario.node[34].nic.mac1609_4 TooLittleTime 0
scalar RSUExampleScenario.node[34].nic.mac1609_4 TimesIntoBackoff 0
scalar RSUExampleScenario.node[34].nic.mac1609_4 SlotsBackoff 0
scalar RSUExampleScenario.node[34].nic.mac1609_4 NumInternalContention 0
scalar RSUExampleScenario.node[34].nic.mac1609_4 totalBusyTime 0
scalar RSUExampleScenario.node[34].veinsmobility startTime 165
scalar RSUExampleScenario.node[34].veinsmobility totalTime 20
scalar RSUExampleScenario.node[34].veinsmobility stopTime 186
scalar RSUExampleScenario.node[34].veinsmobility minSpeed 5.4721277827957
scalar RSUExampleScenario.node[34].veinsmobility maxSpeed 14.124855610981
scalar RSUExampleScenario.node[34].veinsmobility totalDistance 244.48314511531
scalar RSUExampleScenario.node[34].veinsmobility totalCO2Emission 55.944029609456
scalar RSUExampleScenario.node[37].appl generatedWSMs 0
scalar RSUExampleScenario.node[37].appl receivedWSMs 0
scalar RSUExampleScenario.node[37].appl generatedBSMs 0
scalar RSUExampleScenario.node[37].appl receivedBSMs 0
scalar RSUExampleScenario.node[37].appl generatedWSAs 0
scalar RSUExampleScenario.node[37].appl receivedWSAs 0
scalar RSUExampleScenario.node[37].nic.phy80211p busyTime 0
scalar RSUExampleScenario.node[37].nic.mac1609_4 ReceivedUnicastPackets 0
scalar RSUExampleScenario.node[37].nic.mac1609_4 ReceivedBroadcasts 0
scalar RSUExampleScenario.node[37].nic.mac1609_4 SentPackets 0
scalar RSUExampleScenario.node[37].nic.mac1609_4 SentAcknowledgements 0
scalar RSUExampleScenario.node[37].nic.mac1609_4 SNIRLostPackets 0
scalar RSUExampleScenario.node[37].nic.mac1609_4 RXTXLostPackets 0
scalar RSUExampleScenario.node[37].nic.mac1609_4 TotalLostPackets 0
scalar RSUExampleScenario.node[37].nic.mac1609_4 DroppedPacketsInMac 0
scalar RSUExampleScenario.node[37].nic.mac1609_4 TooLittleTime 0
scalar RSUExampleScenario.node[37].nic.mac1609_4 TimesIntoBackoff 0
scalar RSUExampleScenario.node[37].nic.mac1609_4 SlotsBackoff 0
scalar RSUExampleScenario.node[37].nic.mac1609_4 NumInternalContention 0
scalar RSUExampleScenario.node[37].nic.mac1609_4 totalBusyTime 0
scalar RSUExampleScenario.node[37].veinsmobility startTime 174
scalar RSUExampleScenario.node[37].veinsmobility totalTime 22
scalar RSUExampleScenario.node[37].veinsmobility stopTime 197
scalar RSUExampleScenario.node[37].veinsmobility minSpeed 10.99737618275
scalar RSUExampleScenario.node[37].veinsmobility maxSpeed 12.120090935291
scalar RSUExampleScenario.node[37].veinsmobility totalDistance 255.15265115576
scalar RSUExampleScenario.node[37].veinsmobility totalCO2Emission 43.164559320082
scalar RSUExampleScenario.node[36].appl generatedWSMs 0
scalar RSUExampleScenario.node[36].appl receivedWSMs 0
scalar RSUExampleScenario.node[36].appl generatedBSMs 0
scalar RSUExampleScenario.node[36].appl receivedBSMs 0
scalar RSUExampleScenario.node[36].appl generatedWSAs 0
scalar RSUExampleScenario.node[36].appl receivedWSAs 0
scalar RSUExampleScenario.node[36].nic.phy80211p busyTime 0
scalar RSUExampleScenario.node[36].nic.mac1609_4 ReceivedUnicastPackets 0
scalar RSUExampleScenario.node[36].nic.mac1609_4 ReceivedBroadcasts 0
scalar RSUExampleScenario.node[36].nic.mac1609_4 SentPackets 0
scalar RSUExampleScenario.node[36].nic.mac1609_4 SentAcknowledgements 0
scalar RSUExampleScenario.node[36].nic.mac1609_4 SNIRLostPackets 0
scalar RSUExampleScenario.node[36].nic.mac1609_4 RXTXLostPackets 0
scalar RSUExampleScenario.node[36].nic.mac1609_4 TotalLostPackets 0
scalar RSUExampleScenario.node[36].nic.mac1609_4 DroppedPacketsInMac 0
scalar RSUExampleScenario.node[36].nic.mac1609_4 TooLittleTime 0
scalar RSUExampleScenario.node[36].nic.mac1609_4 TimesIntoBackoff 0
scalar RSUExampleScenario.node[36].nic.mac1609_4 SlotsBackoff 0
scalar RSUExampleScenario.node[36].nic.mac1609_4 NumInternalContention 0
scalar RSUExampleScenario.node[36].nic.mac1609_4 totalBusyTime 0
scalar RSUExampleScenario.node[36].veinsmobility startTime 174
scalar RSUExampleScenario.node[36].veinsmobility totalTime 24
scalar RSUExampleScenario.node[36].veinsmobility stopTime 199
scalar RSUExampleScenario.node[36].veinsmobility minSpeed 0.60726377318975
scalar RSUExampleScenario.node[36].veinsmobility maxSpeed 14.458771842972
scalar RSUExampleScenario.node[36].veinsmobility totalDistance 245.80233615327
scalar RSUExampleScenario.node[36].veinsmobility totalCO2Emission 70.800484009542
scalar RSUExampleScenario.node[39].appl generatedWSMs 0
scalar RSUExampleScenario.node[39].appl receivedWSMs 0
scalar RSUExampleScenario.node[39].appl generatedBSMs 0
scalar RSUExampleScenario.node[39].appl receivedBSMs 0
scalar RSUExampleScenario.node[39].appl generatedWSAs 0
scalar RSUExampleScenario.node[39].appl receivedWSAs 0
scalar RSUExampleScenario.node[39].nic.phy80211p busyTime 0
scalar RSUExampleScenario.node[39].nic.mac1609_4 ReceivedUnicastPackets 0
scalar RSUExampleScenario.node[39].nic.mac1609_4 ReceivedBroadcasts 0
scalar RSUExampleScenario.node[39].nic.mac1609_4 SentPackets 0
scalar RSUExampleScenario.node[39].nic.mac1609_4 SentAcknowledgements 0
scalar RSUExampleScenario.node[39].nic.mac1609_4 SNIRLostPackets 0
scalar RSUExampleScenario.node[39].nic.mac1609_4 RXTXLostPackets 0
scalar RSUExampleScenario.node[39].nic.mac1609_4 TotalLostPackets 0
scalar RSUExampleScenario.node[39].nic.mac1609_4 DroppedPacketsInMac 0
scalar RSUExampleScenario.node[39].nic.mac1609_4 TooLittleTime 0
scalar RSUExampleScenario.node[39].nic.mac1609_4 TimesIntoBackoff 0
scalar RSUExampleScenario.node[39].nic.mac1609_4 SlotsBackoff 0
scalar RSUExampleScenario.node[39].nic.mac1609_4 NumInternalContention 0
scalar RSUExampleScenario.node[39].nic.mac1609_4 totalBusyTime 0
scalar RSUExampleScenario.node[39].veinsmobility startTime 184
scalar RSUExampleScenario.node[39].veinsmobility totalTime 23
scalar RSUExampleScenario.node[39].veinsmobility stopTime 208
scalar RSUExampleScenario.node[39].veinsmobility minSpeed 10.438742136488
scalar RSUExampleScenario.node[39].veinsmobility maxSpeed 11.671677155605
scalar RSUExampleScenario.node[39].veinsmobility totalDistance 253.82340753033
scalar RSUExampleScenario.node[39].veinsmobility totalCO2Emission 42.034663067491
scalar RSUExampleScenario.node[38].appl generatedWSMs 0
scalar RSUExampleScenario.node[38].appl receivedWSMs 0
scalar RSUExampleScenario.node[38].appl generatedBSMs 0
scalar RSUExampleScenario.node[38].appl receivedBSMs 0
scalar RSUExampleScenario.node[38].appl generatedWSAs 0
scalar RSUExampleScenario.node[38].appl receivedWSAs 0
scalar RSUExampleScenario.node[38].nic.phy80211p busyTime 0
scalar RSUExampleScenario.node[38].nic.mac1609_4 ReceivedUnicastPackets 0
scalar RSUExampleScenario.node[38].nic.mac1609_4 ReceivedBroadcasts 0
scalar RSUExampleScenario.node[38].nic.mac1609_4 SentPackets 0
scalar RSUExampleScenario.node[38].nic.mac1609_4 SentAcknowledgements 0
scalar RSUExampleScenario.node[38].nic.mac1609_4 SNIRLostPackets 0
scalar RSUExampleScenario.node[38].nic.mac1609_4 RXTXLostPackets 0
scalar RSUExampleScenario.node[38].nic.mac1609_4 TotalLostPackets 0
scalar RSUExampleScenario.node[38].nic.mac1609_4 DroppedPacketsInMac 0
scalar RSUExampleScenario.node[38].nic.mac1609_4 TooLittleTime 0
scalar RSUExampleScenario.node[38].nic.mac1609_4 TimesIntoBackoff 0
scalar RSUExampleScenario.node[38].nic.mac1609_4 SlotsBackoff 0
scalar RSUExampleScenario.node[38].nic.mac1609_4 NumInternalContention 0
scalar RSUExampleScenario.node[38].nic.mac1609_4 totalBusyTime 0
scalar RSUExampleScenario.node[38].veinsmobility startTime 184
scalar RSUExampleScenario.node[38].veinsmobility totalTime 27
scalar RSUExampleScenario.node[38].veinsmobility stopTime 212
scalar RSUExampleScenario.node[38].veinsmobility minSpeed 0.0051483508175634
scalar RSUExampleScenario.node[38].veinsmobility maxSpeed 13.018233003913
scalar RSUExampleScenario.node[38].veinsmobility totalDistance 244.51930373607
scalar RSUExampleScenario.node[38].veinsmobility totalCO2Emission 65.789146238063
scalar RSUExampleScenario.node[41].appl generatedWSMs 0
scalar RSUExampleScenario.node[41].appl receivedWSMs 0
scalar RSUExampleScenario.node[41].appl generatedBSMs 0
scalar RSUExampleScenario.node[41].appl receivedBSMs 0
scalar RSUExampleScenario.node[41].appl generatedWSAs 0
scalar RSUExampleScenario.node[41].appl receivedWSAs 0
scalar RSUExampleScenario.node[41].nic.phy80211p busyTime 0
scalar RSUExampleScenario.node[41].nic.mac1609_4 ReceivedUnicastPackets 0
scalar RSUExampleScenario.node[41].nic.mac1609_4 ReceivedBroadcasts 0
scalar RSUExampleScenario.node[41].nic.mac1609_4 SentPackets 0
scalar RSUExampleScenario.node[41].nic.mac1609_4 SentAcknowledgements 0
scalar RSUExampleScenario.node[41].nic.mac1609_4 SNIRLostPackets 0
scalar RSUExampleScenario.node[41].nic.mac1609_4 RXTXLostPackets 0
scalar RSUExampleScenario.node[41].nic.mac1609_4 TotalLostPackets 0
scalar RSUExampleScenario.node[41].nic.mac1609_4 DroppedPacketsInMac 0
scalar RSUExampleScenario.node[41].nic.mac1609_4 TooLittleTime 0
scalar RSUExampleScenario.node[41].nic.mac1609_4 TimesIntoBackoff 0
scalar RSUExampleScenario.node[41].nic.mac1609_4 SlotsBackoff 0
scalar RSUExampleScenario.node[41].nic.mac1609_4 NumInternalContention 0
scalar RSUExampleScenario.node[41].nic.mac1609_4 totalBusyTime 0
scalar RSUExampleScenario.node[41].veinsmobility startTime 193
scalar RSUExampleScenario.node[41].veinsmobility totalTime 19
scalar RSUExampleScenario.node[41].veinsmobility stopTime 213
scalar RSUExampleScenario.node[41].veinsmobility minSpeed 11.304669469797
scalar RSUExampleScenario.node[41].veinsmobility maxSpeed 13.966126170613
scalar RSUExampleScenario.node[41].veinsmobility totalDistance 244.44134149559
scalar RSUExampleScenario.node[41].veinsmobility totalCO2Emission 43.881913374198
scalar RSUExampleScenario.node[40].appl generatedWSMs 0
scalar RSUExampleScenario.node[40].appl receivedWSMs 0
scalar RSUExampleScenario.node[40].appl generatedBSMs 0
scalar RSUExampleScenario.node[40].appl receivedBSMs 0
scalar RSUExampleScenario.node[40].appl generatedWSAs 0
scalar RSUExampleScenario.node[40].appl receivedWSAs 0
scalar RSUExampleScenario.node[40].nic.phy80211p busyTime 0
scalar RSUExampleScenario.node[40].nic.mac1609_4 ReceivedUnicastPackets 0
scalar RSUExampleScenario.node[40].nic.mac1609_4 ReceivedBroadcasts 0
scalar RSUExampleScenario.node[40].nic.mac1609_4 SentPackets 0
scalar RSUExampleScenario.node[40].nic.mac1609_4 SentAcknowledgements 0
scalar RSUExampleScenario.node[40].nic.mac1609_4 SNIRLostPackets 0
scalar RSUExampleScenario.node[40].nic.mac1609_4 RXTXLostPackets 0
scalar RSUExampleScenario.node[40].nic.mac1609_4 TotalLostPackets 0
scalar RSUExampleScenario.node[40].nic.mac1609_4 DroppedPacketsInMac 0
scalar RSUExampleScenario.node[40].nic.mac1609_4 TooLittleTime 0
scalar RSUExampleScenario.node[40].nic.mac1609_4 TimesIntoBackoff 0
scalar RSUExampleScenario.node[40].nic.mac1609_4 SlotsBackoff 0
scalar RSUExampleScenario.node[40].nic.mac1609_4 NumInternalContention 0
scalar RSUExampleScenario.node[40].nic.mac1609_4 totalBusyTime 0
scalar RSUExampleScenario.node[40].veinsmobility startTime 193
scalar RSUExampleScenario.node[40].veinsmobility totalTime 22
scalar RSUExampleScenario.node[40].veinsmobility stopTime 216
scalar RSUExampleScenario.node[40].veinsmobility minSpeed 5.3628731729475
scalar RSUExampleScenario.node[40].veinsmobility maxSpeed 12.294949567379
scalar RSUExampleScenario.node[40].veinsmobility totalDistance 243.38494326269
scalar RSUExampleScenario.node[40].veinsmobility totalCO2Emission 56.27663809751
scalar RSUExampleScenario.node[43].appl generatedWSMs 0
scalar RSUExampleScenario.node[43].appl receivedWSMs 0
scalar RSUExampleScenario.node[43].appl generatedBSMs 0
scalar RSUExampleScenario.node[43].appl receivedBSMs 0
scalar RSUExampleScenario.node[43].appl generatedWSAs 0
scalar RSUExampleScenario.node[43].appl receivedWSAs 0
scalar RSUExampleScenario.node[43].nic.phy80211p busyTime 0
scalar RSUExampleScenario.node[43].nic.mac1609_4 ReceivedUnicastPackets 0
scalar RSUExampleScenario.node[43].nic.mac1609_4 ReceivedBroadcasts 0
scalar RSUExampleScenario.node[43].nic.mac1609_4 SentPackets 0
scalar RSUExampleScenario.node[43].nic.mac1609_4 SentAcknowledgements 0
scalar RSUExampleScenario.node[43].nic.mac1609_4 SNIRLostPackets 0
scalar RSUExampleScenario.node[43].nic.mac1609_4 RXTXLostPackets 0
scalar RSUExampleScenario.node[43].nic.mac1609_4 TotalLostPackets 0
scalar RSUExampleScenario.node[43].nic.mac1609_4 DroppedPacketsInMac 0
scalar RSUExampleScenario.node[43].nic.mac1609_4 TooLittleTime 0
scalar RSUExampleScenario.node[43].nic.mac1609_4 TimesIntoBackoff 0
scalar RSUExampleScenario.node[43].nic.mac1609_4 SlotsBackoff 0
scalar RSUExampleScenario.node[43].nic.mac1609_4 NumInternalContention 0
scalar RSUExampleScenario.node[43].nic.mac1609_4 totalBusyTime 0
scalar RSUExampleScenario.node[43].veinsmobility startTime 203
scalar RSUExampleScenario.node[43].veinsmobility totalTime 21
scalar RSUExampleScenario.node[43].veinsmobility stopTime 225
scalar RSUExampleScenario.node[43].veinsmobility minSpeed 11.66538453569
scalar RSUExampleScenario.node[43].veinsmobility maxSpeed 12.831409010862
scalar RSUExampleScenario.node[43].veinsmobility totalDistance 254.94093280494
scalar RSUExampleScenario.node[43].veinsmobility totalCO2Emission 42.85404403838
scalar RSUExampleScenario.node[42].appl generatedWSMs 0
scalar RSUExampleScenario.node[42].appl receivedWSMs 0
scalar RSUExampleScenario.node[42].appl generatedBSMs 0
scalar RSUExampleScenario.node[42].appl receivedBSMs 0
scalar RSUExampleScenario.node[42].appl generatedWSAs 0
scalar RSUExampleScenario.node[42].appl receivedWSAs 0
[...]
scalar RSUExampleScenario.node[122].appl receivedBSMs 0
scalar RSUExampleScenario.node[122].appl generatedWSAs 0
scalar RSUExampleScenario.node[122].appl receivedWSAs 0
scalar RSUExampleScenario.node[122].nic.phy80211p busyTime 0
scalar RSUExampleScenario.node[122].nic.mac1609_4 ReceivedUnicastPackets 0
scalar RSUExampleScenario.node[122].nic.mac1609_4 ReceivedBroadcasts 0
scalar RSUExampleScenario.node[122].nic.mac1609_4 SentPackets 0
scalar RSUExampleScenario.node[122].nic.mac1609_4 SentAcknowledgements 0
scalar RSUExampleScenario.node[122].nic.mac1609_4 SNIRLostPackets 0
scalar RSUExampleScenario.node[122].nic.mac1609_4 RXTXLostPackets 0
scalar RSUExampleScenario.node[122].nic.mac1609_4 TotalLostPackets 0
scalar RSUExampleScenario.node[122].nic.mac1609_4 DroppedPacketsInMac 0
scalar RSUExampleScenario.node[122].nic.mac1609_4 TooLittleTime 0
scalar RSUExampleScenario.node[122].nic.mac1609_4 TimesIntoBackoff 0
scalar RSUExampleScenario.node[122].nic.mac1609_4 SlotsBackoff 0
scalar RSUExampleScenario.node[122].nic.mac1609_4 NumInternalContention 0
scalar RSUExampleScenario.node[122].nic.mac1609_4 totalBusyTime 0
scalar RSUExampleScenario.node[122].veinsmobility startTime 587
scalar RSUExampleScenario.node[122].veinsmobility totalTime 20
scalar RSUExampleScenario.node[122].veinsmobility stopTime 608
scalar RSUExampleScenario.node[122].veinsmobility minSpeed 7.3323671006347
scalar RSUExampleScenario.node[122].veinsmobility maxSpeed 13.224950495868
scalar RSUExampleScenario.node[122].veinsmobility totalDistance 241.3637294617
scalar RSUExampleScenario.node[122].veinsmobility totalCO2Emission 49.543131707119
scalar RSUExampleScenario.node[125].appl generatedWSMs 0
scalar RSUExampleScenario.node[125].appl receivedWSMs 0
scalar RSUExampleScenario.node[125].appl generatedBSMs 0
scalar RSUExampleScenario.node[125].appl receivedBSMs 0
scalar RSUExampleScenario.node[125].appl generatedWSAs 0
scalar RSUExampleScenario.node[125].appl receivedWSAs 0
scalar RSUExampleScenario.node[125].nic.phy80211p busyTime 0
scalar RSUExampleScenario.node[125].nic.mac1609_4 ReceivedUnicastPackets 0
scalar RSUExampleScenario.node[125].nic.mac1609_4 ReceivedBroadcasts 0
scalar RSUExampleScenario.node[125].nic.mac1609_4 SentPackets 0
scalar RSUExampleScenario.node[125].nic.mac1609_4 SentAcknowledgements 0
scalar RSUExampleScenario.node[125].nic.mac1609_4 SNIRLostPackets 0
scalar RSUExampleScenario.node[125].nic.mac1609_4 RXTXLostPackets 0
scalar RSUExampleScenario.node[125].nic.mac1609_4 TotalLostPackets 0
scalar RSUExampleScenario.node[125].nic.mac1609_4 DroppedPacketsInMac 0
scalar RSUExampleScenario.node[125].nic.mac1609_4 TooLittleTime 0
scalar RSUExampleScenario.node[125].nic.mac1609_4 TimesIntoBackoff 0
scalar RSUExampleScenario.node[125].nic.mac1609_4 SlotsBackoff 0
scalar RSUExampleScenario.node[125].nic.mac1609_4 NumInternalContention 0
scalar RSUExampleScenario.node[125].nic.mac1609_4 totalBusyTime 0
scalar RSUExampleScenario.node[125].veinsmobility startTime 597
scalar RSUExampleScenario.node[125].veinsmobility totalTime 19
scalar RSUExampleScenario.node[125].veinsmobility stopTime 617
scalar RSUExampleScenario.node[125].veinsmobility minSpeed 12.515907265127
scalar RSUExampleScenario.node[125].veinsmobility maxSpeed 13.734713871099
scalar RSUExampleScenario.node[125].veinsmobility totalDistance 249.04901943464
scalar RSUExampleScenario.node[125].veinsmobility totalCO2Emission 45.255441326386
scalar RSUExampleScenario.node[124].appl generatedWSMs 0
scalar RSUExampleScenario.node[124].appl receivedWSMs 0
scalar RSUExampleScenario.node[124].appl generatedBSMs 0
scalar RSUExampleScenario.node[124].appl receivedBSMs 0
scalar RSUExampleScenario.node[124].appl generatedWSAs 0
scalar RSUExampleScenario.node[124].appl receivedWSAs 0
scalar RSUExampleScenario.node[124].nic.phy80211p busyTime 0
scalar RSUExampleScenario.node[124].nic.mac1609_4 ReceivedUnicastPackets 0
scalar RSUExampleScenario.node[124].nic.mac1609_4 ReceivedBroadcasts 0
scalar RSUExampleScenario.node[124].nic.mac1609_4 SentPackets 0
scalar RSUExampleScenario.node[124].nic.mac1609_4 SentAcknowledgements 0
scalar RSUExampleScenario.node[124].nic.mac1609_4 SNIRLostPackets 0
scalar RSUExampleScenario.node[124].nic.mac1609_4 RXTXLostPackets 0
scalar RSUExampleScenario.node[124].nic.mac1609_4 TotalLostPackets 0
scalar RSUExampleScenario.node[124].nic.mac1609_4 DroppedPacketsInMac 0
scalar RSUExampleScenario.node[124].nic.mac1609_4 TooLittleTime 0
scalar RSUExampleScenario.node[124].nic.mac1609_4 TimesIntoBackoff 0
scalar RSUExampleScenario.node[124].nic.mac1609_4 SlotsBackoff 0
scalar RSUExampleScenario.node[124].nic.mac1609_4 NumInternalContention 0
scalar RSUExampleScenario.node[124].nic.mac1609_4 totalBusyTime 0
scalar RSUExampleScenario.node[124].veinsmobility startTime 597
scalar RSUExampleScenario.node[124].veinsmobility totalTime 22
scalar RSUExampleScenario.node[124].veinsmobility stopTime 620
scalar RSUExampleScenario.node[124].veinsmobility minSpeed 2.2268145496525
scalar RSUExampleScenario.node[124].veinsmobility maxSpeed 14.072399495073
scalar RSUExampleScenario.node[124].veinsmobility totalDistance 244.28610897952
scalar RSUExampleScenario.node[124].veinsmobility totalCO2Emission 66.644005276082
scalar RSUExampleScenario.node[127].appl generatedWSMs 0
scalar RSUExampleScenario.node[127].appl receivedWSMs 0
scalar RSUExampleScenario.node[127].appl generatedBSMs 0
scalar RSUExampleScenario.node[127].appl receivedBSMs 0
scalar RSUExampleScenario.node[127].appl generatedWSAs 0
scalar RSUExampleScenario.node[127].appl receivedWSAs 0
scalar RSUExampleScenario.node[127].nic.phy80211p busyTime 0
scalar RSUExampleScenario.node[127].nic.mac1609_4 ReceivedUnicastPackets 0
scalar RSUExampleScenario.node[127].nic.mac1609_4 ReceivedBroadcasts 0
scalar RSUExampleScenario.node[127].nic.mac1609_4 SentPackets 0
scalar RSUExampleScenario.node[127].nic.mac1609_4 SentAcknowledgements 0
scalar RSUExampleScenario.node[127].nic.mac1609_4 SNIRLostPackets 0
scalar RSUExampleScenario.node[127].nic.mac1609_4 RXTXLostPackets 0
scalar RSUExampleScenario.node[127].nic.mac1609_4 TotalLostPackets 0
scalar RSUExampleScenario.node[127].nic.mac1609_4 DroppedPacketsInMac 0
scalar RSUExampleScenario.node[127].nic.mac1609_4 TooLittleTime 0
scalar RSUExampleScenario.node[127].nic.mac1609_4 TimesIntoBackoff 0
scalar RSUExampleScenario.node[127].nic.mac1609_4 SlotsBackoff 0
scalar RSUExampleScenario.node[127].nic.mac1609_4 NumInternalContention 0
scalar RSUExampleScenario.node[127].nic.mac1609_4 totalBusyTime 0
scalar RSUExampleScenario.node[127].veinsmobility startTime 606
scalar RSUExampleScenario.node[127].veinsmobility totalTime 22
scalar RSUExampleScenario.node[127].veinsmobility stopTime 629
scalar RSUExampleScenario.node[127].veinsmobility minSpeed 10.801594206879
scalar RSUExampleScenario.node[127].veinsmobility maxSpeed 11.966342096242
scalar RSUExampleScenario.node[127].veinsmobility totalDistance 251.64719751488
scalar RSUExampleScenario.node[127].veinsmobility totalCO2Emission 45.008420032723
scalar RSUExampleScenario.node[126].appl generatedWSMs 0
scalar RSUExampleScenario.node[126].appl receivedWSMs 0
scalar RSUExampleScenario.node[126].appl generatedBSMs 0
scalar RSUExampleScenario.node[126].appl receivedBSMs 0
scalar RSUExampleScenario.node[126].appl generatedWSAs 0
scalar RSUExampleScenario.node[126].appl receivedWSAs 0
scalar RSUExampleScenario.node[126].nic.phy80211p busyTime 0
scalar RSUExampleScenario.node[126].nic.mac1609_4 ReceivedUnicastPackets 0
scalar RSUExampleScenario.node[126].nic.mac1609_4 ReceivedBroadcasts 0
scalar RSUExampleScenario.node[126].nic.mac1609_4 SentPackets 0
scalar RSUExampleScenario.node[126].nic.mac1609_4 SentAcknowledgements 0
scalar RSUExampleScenario.node[126].nic.mac1609_4 SNIRLostPackets 0
scalar RSUExampleScenario.node[126].nic.mac1609_4 RXTXLostPackets 0
scalar RSUExampleScenario.node[126].nic.mac1609_4 TotalLostPackets 0
scalar RSUExampleScenario.node[126].nic.mac1609_4 DroppedPacketsInMac 0
scalar RSUExampleScenario.node[126].nic.mac1609_4 TooLittleTime 0
scalar RSUExampleScenario.node[126].nic.mac1609_4 TimesIntoBackoff 0
scalar RSUExampleScenario.node[126].nic.mac1609_4 SlotsBackoff 0
scalar RSUExampleScenario.node[126].nic.mac1609_4 NumInternalContention 0
scalar RSUExampleScenario.node[126].nic.mac1609_4 totalBusyTime 0
scalar RSUExampleScenario.node[126].veinsmobility startTime 606
scalar RSUExampleScenario.node[126].veinsmobility totalTime 24
scalar RSUExampleScenario.node[126].veinsmobility stopTime 631
scalar RSUExampleScenario.node[126].veinsmobility minSpeed 0.18927861256403
scalar RSUExampleScenario.node[126].veinsmobility maxSpeed 15.217670235286
scalar RSUExampleScenario.node[126].veinsmobility totalDistance 245.72745515302
scalar RSUExampleScenario.node[126].veinsmobility totalCO2Emission 76.754659185757
scalar RSUExampleScenario.node[129].appl generatedWSMs 0
scalar RSUExampleScenario.node[129].appl receivedWSMs 0
scalar RSUExampleScenario.node[129].appl generatedBSMs 0
scalar RSUExampleScenario.node[129].appl receivedBSMs 0
scalar RSUExampleScenario.node[129].appl generatedWSAs 0
scalar RSUExampleScenario.node[129].appl receivedWSAs 0
scalar RSUExampleScenario.node[129].nic.phy80211p busyTime 0
scalar RSUExampleScenario.node[129].nic.mac1609_4 ReceivedUnicastPackets 0
scalar RSUExampleScenario.node[129].nic.mac1609_4 ReceivedBroadcasts 0
scalar RSUExampleScenario.node[129].nic.mac1609_4 SentPackets 0
scalar RSUExampleScenario.node[129].nic.mac1609_4 SentAcknowledgements 0
scalar RSUExampleScenario.node[129].nic.mac1609_4 SNIRLostPackets 0
scalar RSUExampleScenario.node[129].nic.mac1609_4 RXTXLostPackets 0
scalar RSUExampleScenario.node[129].nic.mac1609_4 TotalLostPackets 0
scalar RSUExampleScenario.node[129].nic.mac1609_4 DroppedPacketsInMac 0
scalar RSUExampleScenario.node[129].nic.mac1609_4 TooLittleTime 0
scalar RSUExampleScenario.node[129].nic.mac1609_4 TimesIntoBackoff 0
scalar RSUExampleScenario.node[129].nic.mac1609_4 SlotsBackoff 0
scalar RSUExampleScenario.node[129].nic.mac1609_4 NumInternalContention 0
scalar RSUExampleScenario.node[129].nic.mac1609_4 totalBusyTime 0
scalar RSUExampleScenario.node[129].veinsmobility startTime 616
scalar RSUExampleScenario.node[129].veinsmobility totalTime 18
scalar RSUExampleScenario.node[129].veinsmobility stopTime 635
scalar RSUExampleScenario.node[129].veinsmobility minSpeed 13.368603580477
scalar RSUExampleScenario.node[129].veinsmobility maxSpeed 14.587567758243
scalar RSUExampleScenario.node[129].veinsmobility totalDistance 253.99301003466
scalar RSUExampleScenario.node[129].veinsmobility totalCO2Emission 44.807365057611
scalar RSUExampleScenario.node[128].appl generatedWSMs 0
scalar RSUExampleScenario.node[128].appl receivedWSMs 0
scalar RSUExampleScenario.node[128].appl generatedBSMs 0
scalar RSUExampleScenario.node[128].appl receivedBSMs 0
scalar RSUExampleScenario.node[128].appl generatedWSAs 0
scalar RSUExampleScenario.node[128].appl receivedWSAs 0
scalar RSUExampleScenario.node[128].nic.phy80211p busyTime 0
scalar RSUExampleScenario.node[128].nic.mac1609_4 ReceivedUnicastPackets 0
scalar RSUExampleScenario.node[128].nic.mac1609_4 ReceivedBroadcasts 0
scalar RSUExampleScenario.node[128].nic.mac1609_4 SentPackets 0
scalar RSUExampleScenario.node[128].nic.mac1609_4 SentAcknowledgements 0
scalar RSUExampleScenario.node[128].nic.mac1609_4 SNIRLostPackets 0
scalar RSUExampleScenario.node[128].nic.mac1609_4 RXTXLostPackets 0
scalar RSUExampleScenario.node[128].nic.mac1609_4 TotalLostPackets 0
scalar RSUExampleScenario.node[128].nic.mac1609_4 DroppedPacketsInMac 0
scalar RSUExampleScenario.node[128].nic.mac1609_4 TooLittleTime 0
scalar RSUExampleScenario.node[128].nic.mac1609_4 TimesIntoBackoff 0
scalar RSUExampleScenario.node[128].nic.mac1609_4 SlotsBackoff 0
scalar RSUExampleScenario.node[128].nic.mac1609_4 NumInternalContention 0
scalar RSUExampleScenario.node[128].nic.mac1609_4 totalBusyTime 0
scalar RSUExampleScenario.node[128].veinsmobility startTime 616
scalar RSUExampleScenario.node[128].veinsmobility totalTime 22
scalar RSUExampleScenario.node[128].veinsmobility stopTime 639
scalar RSUExampleScenario.node[128].veinsmobility minSpeed 0.40832056618089
scalar RSUExampleScenario.node[128].veinsmobility maxSpeed 15.093856539537
scalar RSUExampleScenario.node[128].veinsmobility totalDistance 236.30696433944
scalar RSUExampleScenario.node[128].veinsmobility totalCO2Emission 64.349586126248
scalar RSUExampleScenario.node[131].appl generatedWSMs 0
scalar RSUExampleScenario.node[131].appl receivedWSMs 0
scalar RSUExampleScenario.node[131].appl generatedBSMs 0
scalar RSUExampleScenario.node[131].appl receivedBSMs 0
scalar RSUExampleScenario.node[131].appl generatedWSAs 0
scalar RSUExampleScenario.node[131].appl receivedWSAs 0
scalar RSUExampleScenario.node[131].nic.phy80211p busyTime 0
scalar RSUExampleScenario.node[131].nic.mac1609_4 ReceivedUnicastPackets 0
scalar RSUExampleScenario.node[131].nic.mac1609_4 ReceivedBroadcasts 0
scalar RSUExampleScenario.node[131].nic.mac1609_4 SentPackets 0
scalar RSUExampleScenario.node[131].nic.mac1609_4 SentAcknowledgements 0
scalar RSUExampleScenario.node[131].nic.mac1609_4 SNIRLostPackets 0
scalar RSUExampleScenario.node[131].nic.mac1609_4 RXTXLostPackets 0
scalar RSUExampleScenario.node[131].nic.mac1609_4 TotalLostPackets 0
scalar RSUExampleScenario.node[131].nic.mac1609_4 DroppedPacketsInMac 0
scalar RSUExampleScenario.node[131].nic.mac1609_4 TooLittleTime 0
scalar RSUExampleScenario.node[131].nic.mac1609_4 TimesIntoBackoff 0
scalar RSUExampleScenario.node[131].nic.mac1609_4 SlotsBackoff 0
scalar RSUExampleScenario.node[131].nic.mac1609_4 NumInternalContention 0
scalar RSUExampleScenario.node[131].nic.mac1609_4 totalBusyTime 0
scalar RSUExampleScenario.node[131].veinsmobility startTime 625
scalar RSUExampleScenario.node[131].veinsmobility totalTime 17
scalar RSUExampleScenario.node[131].veinsmobility stopTime 643
scalar RSUExampleScenario.node[131].veinsmobility minSpeed 13.783726407649
scalar RSUExampleScenario.node[131].veinsmobility maxSpeed 15.055405923856
scalar RSUExampleScenario.node[131].veinsmobility totalDistance 245.75483367793
scalar RSUExampleScenario.node[131].veinsmobility totalCO2Emission 40.489594645708
scalar RSUExampleScenario.node[130].appl generatedWSMs 0
scalar RSUExampleScenario.node[130].appl receivedWSMs 0
scalar RSUExampleScenario.node[130].appl generatedBSMs 0
scalar RSUExampleScenario.node[130].appl receivedBSMs 0
scalar RSUExampleScenario.node[130].appl generatedWSAs 0
scalar RSUExampleScenario.node[130].appl receivedWSAs 0
scalar RSUExampleScenario.node[130].nic.phy80211p busyTime 0
scalar RSUExampleScenario.node[130].nic.mac1609_4 ReceivedUnicastPackets 0
scalar RSUExampleScenario.node[130].nic.mac1609_4 ReceivedBroadcasts 0
scalar RSUExampleScenario.node[130].nic.mac1609_4 SentPackets 0
scalar RSUExampleScenario.node[130].nic.mac1609_4 SentAcknowledgements 0
scalar RSUExampleScenario.node[130].nic.mac1609_4 SNIRLostPackets 0
scalar RSUExampleScenario.node[130].nic.mac1609_4 RXTXLostPackets 0
scalar RSUExampleScenario.node[130].nic.mac1609_4 TotalLostPackets 0
scalar RSUExampleScenario.node[130].nic.mac1609_4 DroppedPacketsInMac 0
scalar RSUExampleScenario.node[130].nic.mac1609_4 TooLittleTime 0
scalar RSUExampleScenario.node[130].nic.mac1609_4 TimesIntoBackoff 0
scalar RSUExampleScenario.node[130].nic.mac1609_4 SlotsBackoff 0
scalar RSUExampleScenario.node[130].nic.mac1609_4 NumInternalContention 0
scalar RSUExampleScenario.node[130].nic.mac1609_4 totalBusyTime 0
scalar RSUExampleScenario.node[130].veinsmobility startTime 625
scalar RSUExampleScenario.node[130].veinsmobility totalTime 20
scalar RSUExampleScenario.node[130].veinsmobility stopTime 646
scalar RSUExampleScenario.node[130].veinsmobility minSpeed 6.261236216451
scalar RSUExampleScenario.node[130].veinsmobility maxSpeed 13.664468863214
scalar RSUExampleScenario.node[130].veinsmobility totalDistance 242.84601214626
scalar RSUExampleScenario.node[130].veinsmobility totalCO2Emission 55.807794433897
scalar RSUExampleScenario.node[133].appl generatedWSMs 0
scalar RSUExampleScenario.node[133].appl receivedWSMs 0
scalar RSUExampleScenario.node[133].appl generatedBSMs 0
scalar RSUExampleScenario.node[133].appl receivedBSMs 0
scalar RSUExampleScenario.node[133].appl generatedWSAs 0
scalar RSUExampleScenario.node[133].appl receivedWSAs 0
scalar RSUExampleScenario.node[133].nic.phy80211p busyTime 0
scalar RSUExampleScenario.node[133].nic.mac1609_4 ReceivedUnicastPackets 0
scalar RSUExampleScenario.node[133].nic.mac1609_4 ReceivedBroadcasts 0
scalar RSUExampleScenario.node[133].nic.mac1609_4 SentPackets 0
scalar RSUExampleScenario.node[133].nic.mac1609_4 SentAcknowledgements 0
scalar RSUExampleScenario.node[133].nic.mac1609_4 SNIRLostPackets 0
scalar RSUExampleScenario.node[133].nic.mac1609_4 RXTXLostPackets 0
scalar RSUExampleScenario.node[133].nic.mac1609_4 TotalLostPackets 0
scalar RSUExampleScenario.node[133].nic.mac1609_4 DroppedPacketsInMac 0
scalar RSUExampleScenario.node[133].nic.mac1609_4 TooLittleTime 0
scalar RSUExampleScenario.node[133].nic.mac1609_4 TimesIntoBackoff 0
scalar RSUExampleScenario.node[133].nic.mac1609_4 SlotsBackoff 0
scalar RSUExampleScenario.node[133].nic.mac1609_4 NumInternalContention 0
scalar RSUExampleScenario.node[133].nic.mac1609_4 totalBusyTime 0
scalar RSUExampleScenario.node[133].veinsmobility startTime 635
scalar RSUExampleScenario.node[133].veinsmobility totalTime 14
scalar RSUExampleScenario.node[133].veinsmobility stopTime 650
scalar RSUExampleScenario.node[133].veinsmobility minSpeed 16.971509329069
scalar RSUExampleScenario.node[133].veinsmobility maxSpeed 18.21018485986
scalar RSUExampleScenario.node[133].veinsmobility totalDistance 245.99553738731
scalar RSUExampleScenario.node[133].veinsmobility totalCO2Emission 38.720407451483
scalar RSUExampleScenario.node[132].appl generatedWSMs 0
scalar RSUExampleScenario.node[132].appl receivedWSMs 0
scalar RSUExampleScenario.node[132].appl generatedBSMs 0
scalar RSUExampleScenario.node[132].appl receivedBSMs 0
scalar RSUExampleScenario.node[132].appl generatedWSAs 0
scalar RSUExampleScenario.node[132].appl receivedWSAs 0
scalar RSUExampleScenario.node[132].nic.phy80211p busyTime 0
scalar RSUExampleScenario.node[132].nic.mac1609_4 ReceivedUnicastPackets 0
scalar RSUExampleScenario.node[132].nic.mac1609_4 ReceivedBroadcasts 0
scalar RSUExampleScenario.node[132].nic.mac1609_4 SentPackets 0
scalar RSUExampleScenario.node[132].nic.mac1609_4 SentAcknowledgements 0
scalar RSUExampleScenario.node[132].nic.mac1609_4 SNIRLostPackets 0
scalar RSUExampleScenario.node[132].nic.mac1609_4 RXTXLostPackets 0
scalar RSUExampleScenario.node[132].nic.mac1609_4 TotalLostPackets 0
scalar RSUExampleScenario.node[132].nic.mac1609_4 DroppedPacketsInMac 0
scalar RSUExampleScenario.node[132].nic.mac1609_4 TooLittleTime 0
scalar RSUExampleScenario.node[132].nic.mac1609_4 TimesIntoBackoff 0
scalar RSUExampleScenario.node[132].nic.mac1609_4 SlotsBackoff 0
scalar RSUExampleScenario.node[132].nic.mac1609_4 NumInternalContention 0
scalar RSUExampleScenario.node[132].nic.mac1609_4 totalBusyTime 0
scalar RSUExampleScenario.node[132].veinsmobility startTime 635
scalar RSUExampleScenario.node[132].veinsmobility totalTime 22
scalar RSUExampleScenario.node[132].veinsmobility stopTime 658
scalar RSUExampleScenario.node[132].veinsmobility minSpeed 4.1570940477337
scalar RSUExampleScenario.node[132].veinsmobility maxSpeed 12.279330664644
scalar RSUExampleScenario.node[132].veinsmobility totalDistance 239.38354387694
scalar RSUExampleScenario.node[132].veinsmobility totalCO2Emission 55.535589998318

