file 444768 1604550394                                          
version 2
run General-0-20201104-22:24:47-12184
attr configname General
attr datetime 20201104-22:24:47
attr experiment General
attr inifile omnetpp.ini
attr iterationvars ""
attr iterationvarsf ""
attr measurement ""
attr network RSUExampleScenario
attr processid 12184
attr repetition 0
attr replication #0
attr resultdir results
attr runnumber 0
attr seedset 0
param *.playgroundSizeX 2500m
param *.playgroundSizeY 2500m
param *.playgroundSizeZ 50m
param *.annotations.draw true
param *.manager.updateInterval 1s
param *.manager.host "\"localhost\""
param *.manager.port 9999
param *.manager.autoShutdown true
param *.manager.launchConfig "xmldoc(\"erlangen.launchd.xml\")"
param *.rsu[0].mobility.x 2000
param *.rsu[0].mobility.y 2000
param *.rsu[0].mobility.z 3
param *.rsu[*].applType "\"TraCIDemoRSU11p\""
param *.rsu[*].appl.headerLength "80 bit"
param *.rsu[*].appl.sendBeacons false
param *.rsu[*].appl.dataOnSch false
param *.rsu[*].appl.beaconInterval 1s
param *.rsu[*].appl.beaconUserPriority 7
param *.rsu[*].appl.dataUserPriority 5
param *.rsu[*].nic.phy80211p.antennaOffsetZ "0 m"
param *.connectionManager.sendDirect true
param *.connectionManager.maxInterfDist 60m
param *.connectionManager.drawMaxIntfDist false
param *.**.nic.mac1609_4.useServiceChannel false
param *.**.nic.mac1609_4.txPower 20mW
param *.**.nic.mac1609_4.bitrate 6Mbps
param *.**.nic.phy80211p.minPowerLevel -110dBm
param *.**.nic.phy80211p.useNoiseFloor true
param *.**.nic.phy80211p.noiseFloor -98dBm
param *.**.nic.phy80211p.decider "xmldoc(\"config.xml\")"
param *.**.nic.phy80211p.analogueModels "xmldoc(\"config.xml\")"
param *.**.nic.phy80211p.usePropagationDelay true
param *.**.nic.phy80211p.antenna "xmldoc(\"antenna.xml\", \"/root/Antenna[@id='monopole']\")"
param *.node[*].nic.phy80211p.antennaOffsetY "0 m"
param *.node[*].nic.phy80211p.antennaOffsetZ "1.895 m"
param *.node[*].applType "\"TraCIDemo11p\""
param *.node[*].appl.headerLength "80 bit"
param *.node[*].appl.sendBeacons false
param *.node[*].appl.dataOnSch false
param *.node[*].appl.beaconInterval 2s
param *.node[*].veinsmobility.x 0
param *.node[*].veinsmobility.y 0
param *.node[*].veinsmobility.z 0
param *.node[*].veinsmobility.setHostSpeed false
param *.node[*0].veinsmobility.accidentCount 0
param *.node[*0].veinsmobility.accidentStart 73s
param *.node[*0].veinsmobility.accidentDuration 50s

vector 0 RSUExampleScenario.node[0].veinsmobility posx ETV
vector 1 RSUExampleScenario.node[0].veinsmobility posy ETV
vector 2 RSUExampleScenario.node[1].veinsmobility posx ETV
vector 3 RSUExampleScenario.node[1].veinsmobility posy ETV
vector 4 RSUExampleScenario.node[0].veinsmobility speed ETV
vector 5 RSUExampleScenario.node[1].veinsmobility speed ETV
vector 6 RSUExampleScenario.node[0].veinsmobility acceleration ETV
vector 7 RSUExampleScenario.node[0].veinsmobility co2emission ETV
vector 8 RSUExampleScenario.node[1].veinsmobility acceleration ETV
vector 9 RSUExampleScenario.node[1].veinsmobility co2emission ETV
vector 10 RSUExampleScenario.node[2].veinsmobility posx ETV
vector 11 RSUExampleScenario.node[2].veinsmobility posy ETV
vector 12 RSUExampleScenario.node[3].veinsmobility posx ETV
vector 13 RSUExampleScenario.node[3].veinsmobility posy ETV
vector 14 RSUExampleScenario.node[2].veinsmobility speed ETV
vector 15 RSUExampleScenario.node[3].veinsmobility speed ETV
vector 16 RSUExampleScenario.node[2].veinsmobility acceleration ETV
vector 17 RSUExampleScenario.node[2].veinsmobility co2emission ETV
vector 18 RSUExampleScenario.node[3].veinsmobility acceleration ETV
vector 19 RSUExampleScenario.node[3].veinsmobility co2emission ETV
9	3704 361 4 20 3 19 17 0.973 6.5200095308628 45.870901247116 163.29760147288
8	4065 432 4 20 3 19 17 -1.1772990263766 1.2610574570717 0.55869403933175 7.4195193336091
5	4497 432 3 20 2 19 18 13.29284790923 14.553905366302 248.81516669854 3442.7468564489
3	4929 458 2 20 1 19 19 67.859085370027 69.377862715352 1305.0843789979 89652.550613181
2	5387 458 2 20 1 19 19 30.099491829414 264.25126133224 2688.7611351877 484981.0931094
vector 20 RSUExampleScenario.node[4].veinsmobility posx ETV
vector 21 RSUExampleScenario.node[4].veinsmobility posy ETV
vector 22 RSUExampleScenario.node[5].veinsmobility posx ETV
vector 23 RSUExampleScenario.node[5].veinsmobility posy ETV
vector 24 RSUExampleScenario.node[4].veinsmobility speed ETV
vector 25 RSUExampleScenario.node[5].veinsmobility speed ETV
vector 26 RSUExampleScenario.node[4].veinsmobility acceleration ETV
vector 27 RSUExampleScenario.node[4].veinsmobility co2emission ETV
vector 28 RSUExampleScenario.node[5].veinsmobility acceleration ETV
vector 29 RSUExampleScenario.node[5].veinsmobility co2emission ETV
7	6487 441 4 24 3 23 21 0.973 10.345151133434 68.921424551686 359.0415444855
6	6928 517 4 24 3 23 21 -4.5 2.4160965752788 0.45904668243602 84.797581047345
4	7445 535 3 24 2 23 22 0.22565845148913 15.413573130217 235.42449458292 3047.6151180666
1	7980 557 2 24 1 23 23 28.571856717077 69.376976125161 1375.2533904307 86456.474459757
0	8537 557 2 24 1 23 23 48.407796666299 259.70596970153 3269.7096325689 544133.79756229
19	9094 390 14 30 13 29 17 0.973 5.593957066678 40.917348058175 132.72172688833
18	9484 467 14 30 13 29 17 -0.73735654451884 1.0654259583913 0.57276575539727 4.5211863063746
15	9951 466 13 30 12 29 18 12.824131389407 14.09584536995 244.33418764788 3318.8138349074
13	10417 488 12 30 11 29 19 67.8239534793 69.36489371648 1304.9642169869 89636.194846649
12	10905 493 12 30 11 29 19 30.099491829414 260.27904345277 2643.6659355632 468780.43082193
vector 30 RSUExampleScenario.node[6].veinsmobility posx ETV
vector 31 RSUExampleScenario.node[6].veinsmobility posy ETV
vector 32 RSUExampleScenario.node[7].veinsmobility posx ETV
vector 33 RSUExampleScenario.node[7].veinsmobility posy ETV
vector 34 RSUExampleScenario.node[6].veinsmobility speed ETV
vector 35 RSUExampleScenario.node[7].veinsmobility speed ETV
vector 36 RSUExampleScenario.node[6].veinsmobility acceleration ETV
vector 37 RSUExampleScenario.node[6].veinsmobility co2emission ETV
vector 38 RSUExampleScenario.node[7].veinsmobility acceleration ETV
vector 39 RSUExampleScenario.node[7].veinsmobility co2emission ETV
17	12040 485 14 34 13 33 21 0.973 8.3438989643606 66.379735907144 309.90165888003
16	12525 537 14 34 13 33 21 -4.5 2.5998513045954 -0.55799556414131 88.476035579623
14	13062 572 13 34 12 33 22 0.90593610158518 14.281721303212 242.31948262696 3024.2383929327
11	13634 592 12 34 11 33 23 28.571856717077 69.378822216185 1371.0784632784 86135.360752782
10	14226 593 12 34 11 33 23 48.407796666299 268.66956499665 3372.0313888967 587126.5400103
29	14819 350 24 38 23 37 15 0.973 4.7352114911186 37.328152124673 123.67114944928
28	15169 410 24 38 23 37 15 -0.73503037611954 0.6491165544372 -0.14834195359144 3.4484199185312
25	15579 414 23 38 22 37 16 14.820490105383 15.956727441636 246.35757832846 3795.0276818236
23	15993 439 22 38 21 37 17 67.826858247757 69.362994624246 1167.6823073489 80212.08748405
22	16432 440 22 38 21 37 17 30.099491829414 261.24681193908 2361.3187676271 420650.21178442
vector 40 RSUExampleScenario.node[8].veinsmobility posx ETV
vector 41 RSUExampleScenario.node[8].veinsmobility posy ETV
vector 42 RSUExampleScenario.node[9].veinsmobility posx ETV
vector 43 RSUExampleScenario.node[9].veinsmobility posy ETV
vector 44 RSUExampleScenario.node[8].veinsmobility speed ETV
vector 45 RSUExampleScenario.node[9].veinsmobility speed ETV
vector 46 RSUExampleScenario.node[8].veinsmobility acceleration ETV
vector 47 RSUExampleScenario.node[8].veinsmobility co2emission ETV
vector 48 RSUExampleScenario.node[9].veinsmobility acceleration ETV
vector 49 RSUExampleScenario.node[9].veinsmobility co2emission ETV
27	17514 484 24 44 23 43 21 0.973 7.3544893531004 53.283643241254 204.01801281505
26	17998 571 24 44 23 43 21 -3.5144192154985 2.433438217896 -0.10515217178036 38.409854845137
24	18569 564 23 44 22 43 22 5.0340449807649 12.22767702383 238.47695230589 2650.2086853005
21	19133 595 22 44 21 43 23 28.571856717077 69.378359181543 1355.1482165195 84546.783188126
20	19728 596 22 44 21 43 23 48.407796666299 266.41864116749 3439.8077050252 617626.23956849
vector 50 RSUExampleScenario.node[10].veinsmobility posx ETV
vector 51 RSUExampleScenario.node[10].veinsmobility posy ETV
vector 52 RSUExampleScenario.node[11].veinsmobility posx ETV
vector 53 RSUExampleScenario.node[11].veinsmobility posy ETV
vector 54 RSUExampleScenario.node[10].veinsmobility speed ETV
vector 55 RSUExampleScenario.node[11].veinsmobility speed ETV
vector 56 RSUExampleScenario.node[10].veinsmobility acceleration ETV
vector 57 RSUExampleScenario.node[10].veinsmobility co2emission ETV
vector 58 RSUExampleScenario.node[11].veinsmobility acceleration ETV
vector 59 RSUExampleScenario.node[11].veinsmobility co2emission ETV
39	20976 554 33 56 32 55 24 0.973 3.6286258993592 44.00041949759 98.89890086983
38	21530 667 33 56 32 55 24 -0.6959086785093 0.77606560324784 0.60651891366579 3.585387775006
35	22197 646 32 56 31 55 25 9.5027009310583 10.571544592167 251.69437213221 2536.4229737542
33	22843 675 31 56 30 55 26 67.838960415383 69.369046706147 1786.2501853642 122729.72715417
32	23518 674 31 56 30 55 26 30.099491829414 271.52351772037 3777.7395993896 694465.1944831
49	24192 335 43 58 42 57 16 0.973 9.2138072715234 35.964582835184 150.25736098607
48	24527 438 43 58 42 57 16 -1.826433288514 2.2712175081484 -4.0287921490954 13.016959450027
45	24965 441 42 58 41 57 17 10.974389615714 17.274399272958 254.82255820189 3907.1195971525
43	25406 467 41 58 40 57 18 67.854644275558 69.369403762283 1237.3982895027 85071.02478562
42	25873 468 41 58 40 57 18 30.099491829414 271.56695107803 2745.2152685456 531989.23991684
vector 60 RSUExampleScenario.node[12].veinsmobility posx ETV
vector 61 RSUExampleScenario.node[12].veinsmobility posy ETV
vector 62 RSUExampleScenario.node[13].veinsmobility posx ETV
vector 63 RSUExampleScenario.node[13].veinsmobility posy ETV
vector 64 RSUExampleScenario.node[12].veinsmobility speed ETV
vector 65 RSUExampleScenario.node[13].veinsmobility speed ETV
vector 66 RSUExampleScenario.node[12].veinsmobility acceleration ETV
vector 67 RSUExampleScenario.node[12].veinsmobility co2emission ETV
vector 68 RSUExampleScenario.node[13].veinsmobility acceleration ETV
vector 69 RSUExampleScenario.node[13].veinsmobility co2emission ETV
37	26993 685 33 63 32 62 31 0.973 6.4990836832474 70.250836693132 250.48169337772
36	27678 782 33 63 32 62 31 -4.5 2.4092173396843 -0.73382135601714 77.861388656654
34	28460 791 32 63 31 62 32 0 13.033264862197 236.0868628685 2704.5045969979
31	29251 854 31 63 30 62 33 28.571856717077 69.376038071817 2002.8663072533 126313.62178086
30	30105 853 31 63 30 62 33 48.407796666299 263.6790776692 4612.0698210321 739831.20640279
47	30958 506 43 65 42 64 23 0.973 7.3655202189534 69.914837478577 333.15303217601
46	31464 590 43 65 42 64 23 -4.5 2.4799598257989 -0.89445740350491 83.36990761913
44	32054 625 42 65 41 64 24 0.51807000632544 14.273477831041 239.40049762985 2828.537854823
41	32679 647 41 65 40 64 25 28.571856717077 69.37502017626 1488.2424162973 92929.337287627
40	33326 645 41 65 40 64 25 48.407796666299 265.7225261452 3633.9628186084 624554.15978389
vector 70 RSUExampleScenario.node[14].veinsmobility posx ETV
vector 71 RSUExampleScenario.node[14].veinsmobility posy ETV
vector 72 RSUExampleScenario.node[15].veinsmobility posx ETV
vector 73 RSUExampleScenario.node[15].veinsmobility posy ETV
59	34219 444 52 70 51 69 19 0.973 3.9974601621078 38.928056698871 96.733022655171
58	34663 523 52 70 51 69 19 -1.1569830177119 0.68660360809881 -0.67859532283619 3.8374286786676
55	35186 517 51 70 50 69 20 11.867230722096 13.042880397311 247.70353808635 3070.6160924856
53	35703 545 50 70 49 69 21 67.841247833874 69.375199997038 1442.7823627005 99133.31772889
52	36248 546 50 70 49 69 21 30.099491829414 265.47446056805 3006.7948491454 545736.29044179
vector 74 RSUExampleScenario.node[14].veinsmobility speed ETV
vector 75 RSUExampleScenario.node[15].veinsmobility speed ETV
vector 76 RSUExampleScenario.node[14].veinsmobility acceleration ETV
vector 77 RSUExampleScenario.node[14].veinsmobility co2emission ETV
vector 78 RSUExampleScenario.node[15].veinsmobility acceleration ETV
vector 79 RSUExampleScenario.node[15].veinsmobility co2emission ETV
57	37198 498 52 73 51 72 22 0.973 9.6759351754963 73.627668240822 392.55524712138
56	37696 581 52 73 51 72 22 -4.5 2.3578617253341 0.20861315054353 91.910344537824
54	38277 597 51 73 50 72 23 0.0549304929639 15.605888453968 246.44122941669 3272.2433692714
51	38874 619 50 73 49 72 24 28.571856717077 69.374018507836 1437.6633540278 90400.347308272
50	39493 620 50 73 49 72 24 48.407796666299 271.29091359781 3476.7623152372 595109.44394546
vector 80 RSUExampleScenario.node[16].veinsmobility posx ETV
vector 81 RSUExampleScenario.node[16].veinsmobility posy ETV
vector 82 RSUExampleScenario.node[17].veinsmobility posx ETV
vector 83 RSUExampleScenario.node[17].veinsmobility posy ETV
69	40361 414 62 79 61 78 18 0.973 4.2975882878731 36.302513094533 92.272399135876
68	40775 500 62 79 61 78 18 -0.63098887710366 0.70004441286437 -0.64788037457038 2.5652311342476
65	41275 493 61 79 60 78 19 12.831683890324 13.617458576488 251.2064808995 3322.7494282632
63	41768 517 60 79 59 78 20 67.82716032859 69.367562357281 1374.0996036795 94415.847538736
62	42285 516 60 79 59 78 20 30.099491829414 268.2933658668 2869.7615855576 524255.50065128
vector 84 RSUExampleScenario.node[16].veinsmobility speed ETV
vector 85 RSUExampleScenario.node[17].veinsmobility speed ETV
vector 86 RSUExampleScenario.node[16].veinsmobility acceleration ETV
vector 87 RSUExampleScenario.node[16].veinsmobility co2emission ETV
vector 88 RSUExampleScenario.node[17].veinsmobility acceleration ETV
vector 89 RSUExampleScenario.node[17].veinsmobility co2emission ETV
67	43205 485 62 82 61 81 21 0.973 8.7366254265477 63.228857182595 278.22970309453
66	43690 553 62 82 61 81 21 -4.5 2.4762424994027 0.95671257914509 59.325223542059
64	44243 568 61 82 60 81 22 3.3692363151141 12.88090711413 241.14434683475 2796.4174432243
61	44811 596 60 82 59 81 23 28.571856717077 69.372420555723 1358.9462059825 84906.558214387
60	45407 595 60 82 59 81 23 48.407796666299 267.87310889405 3406.4631660625 604382.12975139
79	46002 382 72 88 71 87 17 0.973 5.6532512397902 40.413211471888 127.09801269248
78	46384 465 72 88 71 87 17 -0.9128601285629 1.0405632463749 -0.60815162530634 5.2042842586459
75	46849 466 71 88 70 87 18 13.251539114375 14.431613990293 249.2937761438 3455.108091987
73	47315 492 70 88 69 87 19 67.857545939395 69.377234012379 1305.1124421048 89656.313046567
72	47807 493 70 88 69 87 19 30.099491829414 265.7205951917 2705.7175294563 491980.58011142
vector 90 RSUExampleScenario.node[18].veinsmobility posx ETV
vector 91 RSUExampleScenario.node[18].veinsmobility posy ETV
vector 92 RSUExampleScenario.node[19].veinsmobility posx ETV
vector 93 RSUExampleScenario.node[19].veinsmobility posy ETV
vector 94 RSUExampleScenario.node[18].veinsmobility speed ETV
vector 95 RSUExampleScenario.node[19].veinsmobility speed ETV
vector 96 RSUExampleScenario.node[18].veinsmobility acceleration ETV
vector 97 RSUExampleScenario.node[18].veinsmobility co2emission ETV
vector 98 RSUExampleScenario.node[19].veinsmobility acceleration ETV
vector 99 RSUExampleScenario.node[19].veinsmobility co2emission ETV
77	48952 482 72 92 71 91 21 0.973 7.2825628091368 64.905481247264 277.21394696931
76	49434 561 72 92 71 91 21 -4.4811459949783 2.0842022907455 0.62063830604311 74.706605611341
74	49995 571 71 92 70 91 22 1.3366309037349 14.383921487375 238.40455043451 2943.3067674091
71	50566 596 70 92 69 91 23 28.571856717077 69.370431474847 1370.5291398594 86041.447149419
70	51162 596 70 92 69 91 23 48.407796666299 263.82757327397 3338.0976014095 572922.0425375
vector 100 RSUExampleScenario.node[20].veinsmobility posx ETV
vector 101 RSUExampleScenario.node[20].veinsmobility posy ETV
vector 102 RSUExampleScenario.node[21].veinsmobility posx ETV
vector 103 RSUExampleScenario.node[21].veinsmobility posy ETV
vector 104 RSUExampleScenario.node[20].veinsmobility speed ETV
vector 105 RSUExampleScenario.node[21].veinsmobility speed ETV
vector 106 RSUExampleScenario.node[20].veinsmobility acceleration ETV
vector 107 RSUExampleScenario.node[20].veinsmobility co2emission ETV
vector 108 RSUExampleScenario.node[21].veinsmobility acceleration ETV
vector 109 RSUExampleScenario.node[21].veinsmobility co2emission ETV
89	52420 558 81 106 80 105 26 0.973 4.4758420601332 46.493914415472 108.59393656153
88	52978 724 81 106 80 105 26 -0.77415167086292 1.1653617897537 -0.27416729261167 6.3439728061055
85	53702 715 80 106 79 105 27 8.7856890062475 9.9510507960012 254.18670588013 2395.881400942
83	54417 741 79 106 78 105 28 67.824887351207 69.376234672515 1924.0687197161 132227.23792757
82	55158 739 79 106 78 105 28 30.099491829414 274.99980675499 4145.152905675 772698.59262093
vector 110 RSUExampleScenario.node[22].veinsmobility posx ETV
vector 111 RSUExampleScenario.node[22].veinsmobility posy ETV
vector 112 RSUExampleScenario.node[23].veinsmobility posx ETV
vector 113 RSUExampleScenario.node[23].veinsmobility posy ETV
87	56149 633 81 108 80 107 28 0.973 9.410099402709 75.117896317595 363.02286204163
86	56782 766 81 108 80 107 28 -4.5 2.4010632723104 -2.2460207970899 93.625189032896
84	57548 775 80 108 79 107 29 0.0013355310955379 14.419130775997 247.00601128975 2901.9995936284
81	58323 796 79 108 78 107 30 28.571856717077 69.373155033744 1829.758279625 116137.74687805
80	59119 794 79 108 78 107 30 48.407796666299 274.4485466776 4474.8406056005 782964.49645747
vector 114 RSUExampleScenario.node[22].veinsmobility speed ETV
vector 115 RSUExampleScenario.node[23].veinsmobility speed ETV
99	60041 463 91 109 90 108 19 0.973 6.4628840260195 43.512077530124 138.58395273456
98	60504 540 91 109 90 108 19 -1.1480218763072 1.4950077598881 -0.1904497863492 8.0392999072696
95	61044 531 90 109 89 108 20 11.150336303707 12.89070637541 245.35112333608 3014.0929472191
93	61575 564 89 109 88 108 21 67.847723959867 69.378053829591 1442.4361180954 99086.088662969
92	62139 564 89 109 88 108 21 30.099491829414 263.29154191254 2973.0173792256 535268.127692
vector 116 RSUExampleScenario.node[22].veinsmobility acceleration ETV
vector 117 RSUExampleScenario.node[22].veinsmobility co2emission ETV
vector 118 RSUExampleScenario.node[23].veinsmobility acceleration ETV
vector 119 RSUExampleScenario.node[23].veinsmobility co2emission ETV
97	62985 516 91 112 90 111 22 0.973 8.6275240669546 73.819336562551 368.28826311294
96	63501 614 91 112 90 111 22 -4.3773980041399 2.3487891986966 0.82868234978523 77.730454841006
94	64115 621 90 112 89 111 23 0.62010345685576 15.287192930009 246.02887585136 3204.676373823
91	64736 649 89 112 88 111 24 28.571856717077 69.372654407808 1437.2443407366 90353.61976723
90	65385 648 89 112 88 111 24 48.407796666299 270.39983650697 3485.1955998946 598356.06051926
vector 120 RSUExampleScenario.node[24].veinsmobility posx ETV
vector 121 RSUExampleScenario.node[24].veinsmobility posy ETV
vector 122 RSUExampleScenario.node[25].veinsmobility posx ETV
vector 123 RSUExampleScenario.node[25].veinsmobility posy ETV
vector 124 RSUExampleScenario.node[24].veinsmobility speed ETV
vector 125 RSUExampleScenario.node[25].veinsmobility speed ETV
vector 126 RSUExampleScenario.node[24].veinsmobility acceleration ETV
vector 127 RSUExampleScenario.node[24].veinsmobility co2emission ETV
vector 128 RSUExampleScenario.node[25].veinsmobility acceleration ETV
vector 129 RSUExampleScenario.node[25].veinsmobility co2emission ETV
109	66695 544 100 120 99 119 21 0.973 5.4503347549073 43.609675773663 127.96857206722
108	67239 643 100 120 99 119 21 -0.87392518108245 1.2131429386558 0.40168793504126 5.889243741006
105	67882 631 99 120 98 119 22 11.005839533586 12.276323054306 253.25910538267 2919.3369389598
103	68513 660 98 120 97 119 23 67.832270638544 69.373062572007 1580.3023998326 108590.0086756
102	69173 660 98 120 97 119 23 30.099491829414 271.65829707753 3338.5826479677 615256.73243686
107	69833 575 100 122 99 121 23 0.973 11.038789301465 78.052543259263 506.55627925319
106	70408 673 100 122 99 121 23 -4.5 2.5864453264745 -1.3895924400773 103.74386368956
104	71081 691 99 122 98 121 24 0.1452770352439 15.962103546088 246.61450825429 3191.8695570753
101	71772 718 98 122 97 121 25 28.571856717077 69.375782884828 1513.5604035016 95859.909142578
100	72490 718 98 122 97 121 25 48.407796666299 271.72982926039 3708.9826665681 648054.61238211
vector 130 RSUExampleScenario.node[26].veinsmobility posx ETV
vector 131 RSUExampleScenario.node[26].veinsmobility posy ETV
vector 132 RSUExampleScenario.node[27].veinsmobility posx ETV
vector 133 RSUExampleScenario.node[27].veinsmobility posy ETV
vector 134 RSUExampleScenario.node[26].veinsmobility speed ETV
vector 135 RSUExampleScenario.node[27].veinsmobility speed ETV
vector 136 RSUExampleScenario.node[26].veinsmobility acceleration ETV
vector 137 RSUExampleScenario.node[26].veinsmobility co2emission ETV
vector 138 RSUExampleScenario.node[27].veinsmobility acceleration ETV
vector 139 RSUExampleScenario.node[27].veinsmobility co2emission ETV
119	73870 642 110 134 109 133 25 0.973 3.4171750224362 46.644416497742 103.61346837325
118	74512 765 110 134 109 133 25 -0.81297879379708 0.70133346787188 -0.2544589615427 5.0879673437576
115	75277 754 109 134 108 133 26 9.2478043149553 10.398888095082 254.01637888082 2483.7702330607
113	76031 781 108 134 107 133 27 67.845052353775 69.370841837779 1855.3706626658 127507.55657851
112	76812 782 108 134 107 133 27 30.099491829414 274.59101599095 3981.8571902955 740819.09880135
117	77594 663 110 136 109 135 27 0.973 7.8870100021763 68.471241370212 285.5617380423
116	78257 813 110 136 109 135 27 -4.3185489557218 2.5643961252412 -1.5565522213022 78.58052384042
114	79070 816 109 136 108 135 28 0.010519850138275 13.553611032029 246.33621581356 2770.8337929406
111	79886 838 108 136 107 135 29 28.571856717077 69.37990017632 1759.8226262567 111463.46656347
110	80724 839 108 136 107 135 29 48.407796666299 274.35392165064 4359.0612300629 772473.58507513
vector 140 RSUExampleScenario.node[28].veinsmobility posx ETV
vector 141 RSUExampleScenario.node[28].veinsmobility posy ETV
vector 142 RSUExampleScenario.node[29].veinsmobility posx ETV
vector 143 RSUExampleScenario.node[29].veinsmobility posy ETV
129	81815 431 120 137 119 136 18 0.973 6.9414647422477 45.224685320925 179.43572952818
128	82246 545 120 137 119 136 18 -1.6447936248805 1.7586177778323 -1.8290045791239 13.9449780455
125	82791 550 119 137 118 136 19 10.215772909728 14.975878778338 247.02612456882 3259.7785838678
123	83341 579 118 137 117 136 20 67.853399927839 69.374729068676 1374.4236350492 94460.195848931
122	83920 580 118 137 117 136 20 30.099491829414 265.00239186168 2957.3984572693 553069.33213
vector 144 RSUExampleScenario.node[28].veinsmobility speed ETV
vector 145 RSUExampleScenario.node[29].veinsmobility speed ETV
vector 146 RSUExampleScenario.node[28].veinsmobility acceleration ETV
vector 147 RSUExampleScenario.node[28].veinsmobility co2emission ETV
vector 148 RSUExampleScenario.node[29].veinsmobility acceleration ETV
vector 149 RSUExampleScenario.node[29].veinsmobility co2emission ETV
127	84910 507 120 139 119 138 20 0.973 6.3760042060541 51.397103185927 184.73161233031
126	85417 604 120 139 119 138 20 -3.0207184573403 1.7283922401723 -0.21660201405175 22.572574553523
124	86021 608 119 139 118 138 21 7.7725392949518 12.882819165278 239.57332919344 2763.6827579642
121	86629 635 118 139 117 138 22 28.571856717077 69.377860801941 1298.2959667097 81165.007792434
120	87264 637 118 139 117 138 22 48.407796666299 266.9298185298 3340.0706292872 608780.07358572
vector 150 RSUExampleScenario.node[30].veinsmobility posx ETV
vector 151 RSUExampleScenario.node[30].veinsmobility posy ETV
vector 152 RSUExampleScenario.node[31].veinsmobility posx ETV
vector 153 RSUExampleScenario.node[31].veinsmobility posy ETV
139	88153 480 129 146 128 145 18 0.973 4.2178232940788 42.176758604491 115.84211458205
138	88633 547 129 146 128 145 18 -0.935257760901 0.66578710076865 -0.12623353002127 4.1025204830426
135	89180 551 128 146 127 145 19 12.916864634328 14.134263151604 254.62891487168 3414.947115378
133	89731 580 127 146 126 145 20 67.822431898829 69.365552596168 1374.1936604092 94428.869683176
132	90311 579 127 146 126 145 20 30.099491829414 271.64527219969 2897.4968989101 536571.89070912
vector 154 RSUExampleScenario.node[30].veinsmobility speed ETV
vector 155 RSUExampleScenario.node[31].veinsmobility speed ETV
vector 156 RSUExampleScenario.node[30].veinsmobility acceleration ETV
vector 157 RSUExampleScenario.node[30].veinsmobility co2emission ETV
vector 158 RSUExampleScenario.node[31].veinsmobility acceleration ETV
vector 159 RSUExampleScenario.node[31].veinsmobility co2emission ETV
137	91300 538 129 149 128 148 21 0.973 8.9234072617543 62.492260224476 287.96610828315
136	91838 632 129 149 128 148 21 -3.8031226382591 2.1910559683675 -0.090590248163788 62.465153850633
134	92470 638 128 149 127 148 22 2.6619260143292 13.545795411374 239.37263765406 2846.079838841
131	93108 667 127 149 126 148 23 28.571856717077 69.377642492444 1364.3863532005 85403.750930648
130	93775 664 127 149 126 148 23 48.407796666299 265.44743249085 3363.0759932307 584916.25627151
149	94439 452 139 155 138 154 17 0.973 5.7206749881531 39.601010369525 120.03250065874
148	94891 517 139 155 138 154 17 -1.089700712706 1.0450946913334 -0.72615289515816 5.3545031390653
145	95408 520 138 155 137 154 18 13.342568785659 14.547288720458 246.94000332583 3390.3361278376
143	95928 547 137 155 136 154 19 67.862854414791 69.378755434539 1305.029747634 89645.15878562
142	96475 550 137 155 136 154 19 30.099491829414 263.58257892268 2675.2590505645 480243.26774261
vector 160 RSUExampleScenario.node[32].veinsmobility posx ETV
vector 161 RSUExampleScenario.node[32].veinsmobility posy ETV
vector 162 RSUExampleScenario.node[33].veinsmobility posx ETV
vector 163 RSUExampleScenario.node[33].veinsmobility posy ETV
vector 164 RSUExampleScenario.node[32].veinsmobility speed ETV
vector 165 RSUExampleScenario.node[33].veinsmobility speed ETV
vector 166 RSUExampleScenario.node[32].veinsmobility acceleration ETV
vector 167 RSUExampleScenario.node[32].veinsmobility co2emission ETV
vector 168 RSUExampleScenario.node[33].veinsmobility acceleration ETV
vector 169 RSUExampleScenario.node[33].veinsmobility co2emission ETV
147	97687 547 139 159 138 158 21 0.973 8.5505593047854 67.813001976287 327.20137139173
146	98234 601 139 159 138 158 21 -4.5 2.4025807095459 0.076546740345657 87.88751168325
144	98835 635 138 159 137 158 22 0.99206191173289 14.354797342111 246.51186743403 3121.4641368935
141	99470 666 137 159 136 158 23 28.571856717077 69.378248865376 1371.5937863155 86179.239502247
140	100136 666 137 159 136 158 23 48.407796666299 272.36475755867 3398.241811459 598495.26487453
159	100802 414 148 162 147 161 15 0.973 5.1652639811524 37.458814523622 112.40941685711
158	101216 458 148 162 147 161 15 -0.86119990146253 0.74338855866808 0.24497979725711 2.0276284801756
155	101674 464 147 162 146 161 16 15.385522929899 16.496071835369 254.36083883441 4045.4904930586
153	102138 492 146 162 145 161 17 67.824356701256 69.379046480921 1167.6920033669 80213.452169704
152	102630 493 146 162 145 161 17 30.099491829414 268.61141686001 2409.0428776104 441070.13721712
157	103123 422 148 164 147 163 17 0.973 11.114137834087 69.49500329123 467.38222512302
156	103545 507 148 164 147 163 17 -4.3525342787581 2.4663661873899 0.33251677316148 74.758496561808
154	104052 521 147 164 146 163 18 4.4318314654047 15.885964521982 233.52844589745 3258.4455537538
151	104573 551 146 164 145 163 19 28.571856717077 69.378972355846 1110.8912568014 68913.643699323
150	105124 547 146 164 145 163 19 48.407796666299 258.01281241204 2695.3395768045 456836.03412461
vector 170 RSUExampleScenario.node[34].veinsmobility posx ETV
vector 171 RSUExampleScenario.node[34].veinsmobility posy ETV
vector 172 RSUExampleScenario.node[35].veinsmobility posx ETV
vector 173 RSUExampleScenario.node[35].veinsmobility posy ETV
vector 174 RSUExampleScenario.node[34].veinsmobility speed ETV
vector 175 RSUExampleScenario.node[35].veinsmobility speed ETV
vector 176 RSUExampleScenario.node[34].veinsmobility acceleration ETV
vector 177 RSUExampleScenario.node[34].veinsmobility co2emission ETV
vector 178 RSUExampleScenario.node[35].veinsmobility acceleration ETV
vector 179 RSUExampleScenario.node[35].veinsmobility co2emission ETV
vector 180 RSUExampleScenario.node[36].veinsmobility posx ETV
vector 181 RSUExampleScenario.node[36].veinsmobility posy ETV
vector 182 RSUExampleScenario.node[37].veinsmobility posx ETV
vector 183 RSUExampleScenario.node[37].veinsmobility posy ETV
169	106585 470 158 175 157 174 18 0.973 5.0619796129393 42.36146144757 143.30478123635
168	107055 550 158 175 157 174 18 -0.73658372873906 0.93112634397112 0.72092087077908 5.7082712643123
165	107605 550 157 175 156 174 19 12.407567911709 13.636048085054 247.86239018284 3236.1337525316
163	108155 580 156 175 155 174 20 67.833581085374 69.369615599713 1373.9618844601 94396.746025241
162	108735 579 156 175 155 174 20 30.099491829414 264.68444642137 2828.5565179951 509927.44399787
vector 184 RSUExampleScenario.node[36].veinsmobility speed ETV
vector 185 RSUExampleScenario.node[37].veinsmobility speed ETV
vector 186 RSUExampleScenario.node[36].veinsmobility acceleration ETV
vector 187 RSUExampleScenario.node[36].veinsmobility co2emission ETV
vector 188 RSUExampleScenario.node[37].veinsmobility acceleration ETV
vector 189 RSUExampleScenario.node[37].veinsmobility co2emission ETV
167	109724 547 158 179 157 178 22 0.973 7.7274800218627 52.523854954053 194.78930048788
166	110271 657 158 179 157 178 22 -4.5 2.4174969819607 -0.44042900307104 36.048958750234
164	110928 662 157 179 156 178 23 5.9947817983003 11.647388304668 245.19503281282 2649.2788444928
161	111590 696 156 179 155 178 24 28.571856717077 69.379030422531 1415.341592385 88371.523383774
160	112286 693 156 179 155 178 24 48.407796666299 273.57277518065 3654.8635922424 671420.15531035
179	112979 423 168 183 167 182 16 0.973 6.7235596558115 41.795863972669 145.80912998751
178	113402 486 168 183 167 182 16 -1.0481717617949 1.1950489747105 0.29182879275177 4.839804908317
175	113888 493 167 183 166 182 17 14.433150428988 15.643084560626 253.46904075844 3781.3002890655
173	114381 521 166 183 165 182 18 67.840745746425 69.368833298716 1236.4867422062 84946.011062259
172	114902 522 166 183 165 182 18 30.099491829414 268.66837919126 2560.4074066158 468638.71211048
vector 190 RSUExampleScenario.node[38].veinsmobility posx ETV
vector 191 RSUExampleScenario.node[38].veinsmobility posy ETV
vector 192 RSUExampleScenario.node[39].veinsmobility posx ETV
vector 193 RSUExampleScenario.node[39].veinsmobility posy ETV
vector 194 RSUExampleScenario.node[38].veinsmobility speed ETV
vector 195 RSUExampleScenario.node[39].veinsmobility speed ETV
177	115804 480 168 186 167 185 19 0.973 8.9185345869317 55.944029609456 262.92464160808
176	116284 573 168 186 167 185 19 -4.3302100950619 2.3424680717289 -0.88977097419556 48.591087234134
174	116857 577 167 186 166 185 20 5.4721277827957 14.124855610981 244.56166684165 3116.8540825201
171	117434 609 166 186 165 185 21 28.571856717077 69.369632082182 1236.2832632538 77072.912524014
170	118043 607 166 186 165 185 21 48.407796666299 271.02237313043 3122.1442095392 559533.38282495
vector 196 RSUExampleScenario.node[38].veinsmobility acceleration ETV
vector 197 RSUExampleScenario.node[38].veinsmobility co2emission ETV
vector 198 RSUExampleScenario.node[39].veinsmobility acceleration ETV
vector 199 RSUExampleScenario.node[39].veinsmobility co2emission ETV
vector 200 RSUExampleScenario.node[40].veinsmobility posx ETV
vector 201 RSUExampleScenario.node[40].veinsmobility posy ETV
vector 202 RSUExampleScenario.node[41].veinsmobility posx ETV
vector 203 RSUExampleScenario.node[41].veinsmobility posy ETV
vector 204 RSUExampleScenario.node[40].veinsmobility speed ETV
vector 205 RSUExampleScenario.node[41].veinsmobility speed ETV
vector 206 RSUExampleScenario.node[40].veinsmobility acceleration ETV
vector 207 RSUExampleScenario.node[40].veinsmobility co2emission ETV
vector 208 RSUExampleScenario.node[41].veinsmobility acceleration ETV
vector 209 RSUExampleScenario.node[41].veinsmobility co2emission ETV
189	119594 536 177 197 176 196 21 0.973 4.7418533863148 43.164559320082 115.13120876015
188	120130 643 177 197 176 196 21 -0.90008993458468 1.0006850392558 -0.53684663868044 5.5747940282147
185	120773 633 176 197 175 196 22 10.99737618275 12.120090935291 255.2049269631 2963.3216569361
183	121406 665 175 197 174 196 23 67.829476635812 69.37340126882 1580.287807154 108588.03101834
182	122071 667 175 197 174 196 23 30.099491829414 273.91451630909 3365.8406964761 625310.8467792
187	122738 576 177 199 176 198 23 0.973 7.7683954714081 70.800484009542 346.13597252705
186	123314 689 177 199 176 198 23 -4.2136562615788 2.5256323035574 -0.0019853666424723 80.925190205519
184	124003 691 176 199 175 198 24 0.60726377318975 14.458771842972 245.83575377024 3018.257971971
181	124694 722 175 199 174 198 25 28.571856717077 69.376034911485 1499.7504165638 94422.308098272
180	125416 724 175 199 174 198 25 48.407796666299 271.40256393232 3666.6188723802 636281.77539586
vector 210 RSUExampleScenario.node[42].veinsmobility posx ETV
vector 211 RSUExampleScenario.node[42].veinsmobility posy ETV
vector 212 RSUExampleScenario.node[43].veinsmobility posx ETV
vector 213 RSUExampleScenario.node[43].veinsmobility posy ETV
vector 214 RSUExampleScenario.node[42].veinsmobility speed ETV
vector 215 RSUExampleScenario.node[43].veinsmobility speed ETV
vector 216 RSUExampleScenario.node[42].veinsmobility acceleration ETV
vector 217 RSUExampleScenario.node[42].veinsmobility co2emission ETV
vector 218 RSUExampleScenario.node[43].veinsmobility acceleration ETV
vector 219 RSUExampleScenario.node[43].veinsmobility co2emission ETV
199	126802 547 187 208 186 207 22 0.973 4.4332383081562 42.034663067491 105.28855607258
198	127349 669 187 208 186 207 22 -0.5851837157039 0.93012551371939 -0.44744267966598 4.5827805106684
195	128018 660 186 208 185 207 23 10.438742136488 11.671677155605 253.87282835844 2805.2646760255
193	128678 692 185 208 184 207 24 67.837819203103 69.377307376581 1649.2656366498 113346.31043151
192	129370 691 185 208 184 207 24 30.099491829414 272.63859388251 3524.7037267049 653608.76917564
197	130061 652 187 212 186 211 26 0.973 6.871965381857 65.789146238063 257.27873005237
196	130713 768 187 212 186 211 26 -4.5 2.4545633887406 -0.41340393177234 69.718241100506
194	131481 788 186 212 185 211 27 0.0051483508175634 13.018233003913 244.57009258762 2800.6456665133
191	132269 810 185 212 184 211 28 28.571856717077 69.379725099599 1685.7538677157 106223.83159647
190	133079 807 185 212 184 211 28 48.407796666299 272.21150885934 4082.1832829943 700647.62634222
209	133886 432 196 213 195 212 18 0.973 6.4526816052337 43.881913374198 175.09351785096
208	134318 547 196 213 195 212 18 -1.3265686749094 1.362655987995 -0.92196651872418 11.343763182841
205	134865 551 195 213 194 212 19 11.304669469797 13.966126170613 244.49706684881 3154.6662037079
203	135416 580 194 213 193 212 20 67.830407669655 69.371933806623 1373.7345763174 94365.497484239
202	135996 579 194 213 193 212 20 30.099491829414 262.16718132383 2826.0980176569 507010.91703596
vector 220 RSUExampleScenario.node[44].veinsmobility posx ETV
vector 221 RSUExampleScenario.node[44].veinsmobility posy ETV
vector 222 RSUExampleScenario.node[45].veinsmobility posx ETV
vector 223 RSUExampleScenario.node[45].veinsmobility posy ETV
vector 224 RSUExampleScenario.node[44].veinsmobility speed ETV
vector 225 RSUExampleScenario.node[45].veinsmobility speed ETV
vector 226 RSUExampleScenario.node[44].veinsmobility acceleration ETV
vector 227 RSUExampleScenario.node[44].veinsmobility co2emission ETV
vector 228 RSUExampleScenario.node[45].veinsmobility acceleration ETV
vector 229 RSUExampleScenario.node[45].veinsmobility co2emission ETV
207	137237 529 196 216 195 215 21 0.973 7.8795509198868 56.27663809751 242.98239792187
206	137766 634 196 216 195 215 21 -4.0501867628773 2.483271872066 0.12139281074051 42.895730177946
204	138400 638 195 216 194 215 22 5.3628731729475 12.294949567379 243.53106915516 2751.7452437084
201	139038 667 194 216 193 215 23 28.571856717077 69.378107946462 1350.1971220861 84020.653375819
200	139705 664 194 216 193 215 23 48.407796666299 271.53232920124 3457.3077658432 628382.55266939
vector 230 RSUExampleScenario.node[46].veinsmobility posx ETV
vector 231 RSUExampleScenario.node[46].veinsmobility posy ETV
vector 232 RSUExampleScenario.node[47].veinsmobility posx ETV
vector 233 RSUExampleScenario.node[47].veinsmobility posy ETV
vector 234 RSUExampleScenario.node[46].veinsmobility speed ETV
vector 235 RSUExampleScenario.node[47].veinsmobility speed ETV
vector 236 RSUExampleScenario.node[46].veinsmobility acceleration ETV
vector 237 RSUExampleScenario.node[46].veinsmobility co2emission ETV
vector 238 RSUExampleScenario.node[47].veinsmobility acceleration ETV
vector 239 RSUExampleScenario.node[47].veinsmobility co2emission ETV
219	141031 510 206 225 205 224 20 0.973 4.2127636219163 42.85404403838 121.6546467191
218	141541 610 206 225 205 224 20 -1.1325195894344 0.77253735095728 0.092372853518462 5.2902351474713
215	142151 605 205 225 204 224 21 11.66538453569 12.831409010862 254.96580216683 3097.3326444452
213	142756 635 204 225 203 224 22 67.854318309346 69.365653361982 1511.5683212958 103865.574008
212	143391 636 204 225 203 224 22 30.099491829414 272.65542246797 3209.9311209453 596324.21580555
217	144027 586 206 228 205 227 23 0.973 8.756291632252 62.580811041299 265.91426865719
216	144613 676 206 228 205 227 23 -4.5 2.3819507262437 -0.44138436869252 71.474657468078
214	145289 693 205 228 204 227 24 0.4511870815753 12.586386290012 235.44523846729 2613.6936274326
211	145982 723 204 228 203 227 25 28.571856717077 69.37345803411 1486.317374984 93080.63161408
210	146705 723 204 228 203 227 25 48.407796666299 263.45579703424 3621.2730981792 620937.35682357
229	147428 364 216 230 215 229 15 0.973 8.343267944455 42.795881626109 201.85726896269
228	147792 454 216 230 215 229 15 -1.0734063100292 1.7323091121856 -0.26697502516786 9.6934442024358
225	148246 460 215 230 214 229 16 13.145607619083 16.355338635588 247.17310015394 3829.1347721692
223	148706 491 214 230 213 229 17 67.822671495621 69.378370230101 1167.6972163958 80214.198156133
222	149197 490 214 230 213 229 17 30.099491829414 262.28518342267 2400.1754074975 435492.64778987
vector 240 RSUExampleScenario.node[48].veinsmobility posx ETV
vector 241 RSUExampleScenario.node[48].veinsmobility posy ETV
vector 242 RSUExampleScenario.node[49].veinsmobility posx ETV
vector 243 RSUExampleScenario.node[49].veinsmobility posy ETV
vector 244 RSUExampleScenario.node[48].veinsmobility speed ETV
vector 245 RSUExampleScenario.node[49].veinsmobility speed ETV
vector 246 RSUExampleScenario.node[48].veinsmobility acceleration ETV
vector 247 RSUExampleScenario.node[48].veinsmobility co2emission ETV
vector 248 RSUExampleScenario.node[49].veinsmobility acceleration ETV
vector 249 RSUExampleScenario.node[49].veinsmobility co2emission ETV
227	150349 576 216 237 215 236 22 0.973 6.7961476014072 60.064912420484 222.97331764908
226	150925 662 216 237 215 236 22 -4.4713020061958 2.4431974221719 0.18106135972775 50.813514411444
224	151587 665 215 237 214 236 23 4.0928075986873 12.206933705771 246.32654685498 2731.1593483243
221	152252 694 214 237 213 236 24 28.571856717077 69.370778140783 1422.8449840435 89145.364614371
220	152946 694 214 237 213 236 24 48.407796666299 274.11774923783 3650.1561278073 667631.01763109
vector 250 RSUExampleScenario.node[50].veinsmobility posx ETV
vector 251 RSUExampleScenario.node[50].veinsmobility posy ETV
vector 252 RSUExampleScenario.node[51].veinsmobility posx ETV
vector 253 RSUExampleScenario.node[51].veinsmobility posy ETV
vector 254 RSUExampleScenario.node[50].veinsmobility speed ETV
vector 255 RSUExampleScenario.node[51].veinsmobility speed ETV
vector 256 RSUExampleScenario.node[50].veinsmobility acceleration ETV
vector 257 RSUExampleScenario.node[50].veinsmobility co2emission ETV
vector 258 RSUExampleScenario.node[51].veinsmobility acceleration ETV
vector 259 RSUExampleScenario.node[51].veinsmobility co2emission ETV
239	154302 633 225 249 224 248 25 0.973 3.955254085365 44.685372116452 103.0166116359
238	154935 768 225 249 224 248 25 -0.80143163369503 0.93175019738264 -0.38150859328453 5.651661380456
235	155703 753 224 249 223 248 26 9.128850682379 10.117298154879 248.75529274955 2383.0562631118
233	156456 780 223 249 222 248 27 67.849266423217 69.37324123487 1855.1962651019 127483.64579165
232	157236 780 223 249 222 248 27 30.099491829414 269.5715952092 3934.659773998 723041.95579098
vector 260 RSUExampleScenario.node[52].veinsmobility posx ETV
vector 261 RSUExampleScenario.node[52].veinsmobility posy ETV
vector 262 RSUExampleScenario.node[53].veinsmobility posx ETV
vector 263 RSUExampleScenario.node[53].veinsmobility posy ETV
237	158268 719 225 252 224 251 28 0.973 5.4559786021393 67.619237632975 225.45360497596
236	158987 832 225 252 224 251 28 -4.5 2.4894425308332 0.57858510154765 67.781278677446
234	159819 844 224 252 223 251 29 0.0058021936495264 11.724316478024 246.91999106896 2582.064472835
231	160663 864 223 252 222 251 30 28.571856717077 69.374552131377 1808.8195170218 114128.14648565
230	161527 861 223 252 222 251 30 48.407796666299 274.9287255724 4451.0359390573 779891.18497338
vector 264 RSUExampleScenario.node[52].veinsmobility speed ETV
vector 265 RSUExampleScenario.node[53].veinsmobility speed ETV
vector 266 RSUExampleScenario.node[52].veinsmobility acceleration ETV
vector 267 RSUExampleScenario.node[52].veinsmobility co2emission ETV
vector 268 RSUExampleScenario.node[53].veinsmobility acceleration ETV
vector 269 RSUExampleScenario.node[53].veinsmobility co2emission ETV
249	162798 500 235 254 234 253 20 0.973 5.0441126073924 43.774561467257 136.99674352005
248	163298 611 235 254 234 253 20 -1.0776327749947 1.0439250916475 0.4160674008308 6.7310670762586
245	163909 604 234 254 233 253 21 11.285485951718 12.517077442537 249.04815314552 2956.5534699136
243	164513 636 233 254 232 253 22 67.825792102399 69.371056531934 1511.2676046956 103824.15662974
242	165149 633 233 254 232 253 22 30.099491829414 266.8322762665 3137.4770544649 568681.71652071
247	165782 576 235 257 234 256 23 0.973 6.8048271625726 60.52581814262 246.1366651084
246	166358 690 235 257 234 256 23 -3.8022701742477 2.5492287805071 -0.19308924472425 50.626300065197
244	167048 695 234 257 233 256 24 2.7001301964043 11.943876352658 242.89142332145 2607.0704044699
241	167743 721 233 257 232 256 25 28.571856717077 69.372000931068 1481.3388373653 92642.364314524
240	168464 724 233 257 232 256 25 48.407796666299 270.93377796933 3733.4803609657 667679.79769516
259	169188 393 244 259 243 258 16 0.973 5.6808259505829 34.509434436369 106.39877242231
258	169581 490 244 259 243 258 16 -0.65102522533853 0.94581447539385 -0.86089921961539 3.1870545743108
255	170071 492 243 259 242 258 17 14.304926066029 15.342170808765 250.62550578326 3696.3072168687
253	170563 521 242 259 241 258 18 67.842609693839 69.369420289815 1236.3824192184 84931.700514463
252	171084 518 242 259 241 258 18 30.099491829414 266.21602779317 2548.3816957888 462464.01389769
vector 270 RSUExampleScenario.node[54].veinsmobility posx ETV
vector 271 RSUExampleScenario.node[54].veinsmobility posy ETV
vector 272 RSUExampleScenario.node[55].veinsmobility posx ETV
vector 273 RSUExampleScenario.node[55].veinsmobility posy ETV
257	171854 489 244 262 243 261 19 0.973 8.186781417238 50.205491555562 198.5467929366
256	172343 561 244 262 243 261 19 -4.5 2.3792204505997 0.43344300412573 31.849745626379
254	172904 576 243 262 242 261 20 7.445111465723 12.808124652313 237.00980487995 2843.3449306067
251	173480 608 242 262 241 261 21 28.571856717077 69.377352888204 1229.1966348297 76416.158867994
250	174088 607 242 262 241 261 21 48.407796666299 263.93445626987 3105.9077150383 552869.41560957
vector 274 RSUExampleScenario.node[54].veinsmobility speed ETV
vector 275 RSUExampleScenario.node[55].veinsmobility speed ETV
vector 276 RSUExampleScenario.node[54].veinsmobility acceleration ETV
vector 277 RSUExampleScenario.node[54].veinsmobility co2emission ETV
vector 278 RSUExampleScenario.node[55].veinsmobility acceleration ETV
vector 279 RSUExampleScenario.node[55].veinsmobility co2emission ETV
vector 280 RSUExampleScenario.node[56].veinsmobility posx ETV
vector 281 RSUExampleScenario.node[56].veinsmobility posy ETV
vector 282 RSUExampleScenario.node[57].veinsmobility posx ETV
vector 283 RSUExampleScenario.node[57].veinsmobility posy ETV
vector 284 RSUExampleScenario.node[56].veinsmobility speed ETV
vector 285 RSUExampleScenario.node[57].veinsmobility speed ETV
vector 286 RSUExampleScenario.node[56].veinsmobility acceleration ETV
vector 287 RSUExampleScenario.node[56].veinsmobility co2emission ETV
vector 288 RSUExampleScenario.node[57].veinsmobility acceleration ETV
vector 289 RSUExampleScenario.node[57].veinsmobility co2emission ETV
269	175767 514 254 274 253 273 21 0.973 4.9978989483739 44.265371151145 125.33195350117
268	176281 639 254 274 253 273 21 -0.91344791646116 1.0622671295656 -0.83034467683174 6.9842996691011
265	176920 638 253 274 252 273 22 11.065388463291 12.224154173226 256.0894281212 2984.265810757
263	177558 663 252 274 251 273 23 67.826871351015 69.371755356815 1580.3816785479 108600.97535005
262	178221 666 252 274 251 273 23 30.099491829414 274.78893239554 3376.2694274515 628380.817597
267	178887 587 254 276 253 275 23 0.973 7.1861192878863 65.451255068742 271.53162518654
266	179474 675 254 276 253 275 23 -4.5 2.5229838437866 -0.27736580276396 77.103188809209
264	180149 694 253 276 252 275 24 0.31176704237057 13.143080879158 239.52022224593 2739.4224303539
261	180843 721 252 276 251 275 25 28.571856717077 69.373036236231 1491.3401686122 93594.452863711
260	181564 720 252 276 251 275 25 48.407796666299 266.38582585557 3645.0477106364 628967.656068
279	182284 411 264 279 263 278 16 0.973 4.442332715906 36.697629410926 105.85983518121
278	182695 489 264 279 263 278 16 -0.82077737611253 0.66222577283625 -0.51912941336632 3.1676943627961
275	183184 492 263 279 262 278 17 13.97681086393 15.071424648808 246.35145818424 3572.2345978449
273	183676 522 262 279 261 278 18 67.850334706559 69.372327246516 1236.1087974942 84894.235360682
272	184198 520 262 279 261 278 18 30.099491829414 262.12600414904 2514.6616917695 450086.56175953
vector 290 RSUExampleScenario.node[58].veinsmobility posx ETV
vector 291 RSUExampleScenario.node[58].veinsmobility posy ETV
vector 292 RSUExampleScenario.node[59].veinsmobility posx ETV
vector 293 RSUExampleScenario.node[59].veinsmobility posy ETV
vector 294 RSUExampleScenario.node[58].veinsmobility speed ETV
vector 295 RSUExampleScenario.node[59].veinsmobility speed ETV
277	185098 491 264 282 263 281 19 0.973 9.1036274879989 50.9043675483 210.54139051612
276	185589 565 264 282 263 281 19 -4.5 2.4721491126809 -0.26118967456278 32.970850948272
274	186154 575 263 282 262 281 20 8.2055805731914 12.705580573191 234.90166392927 2779.5333850312
271	186729 608 262 282 261 281 21 28.571856717077 69.376105113521 1225.2643735687 76014.592333252
270	187337 606 262 282 261 281 21 48.407796666299 262.51506365508 3099.9017977464 551576.47787863
vector 296 RSUExampleScenario.node[58].veinsmobility acceleration ETV
vector 297 RSUExampleScenario.node[58].veinsmobility co2emission ETV
vector 298 RSUExampleScenario.node[59].veinsmobility acceleration ETV
vector 299 RSUExampleScenario.node[59].veinsmobility co2emission ETV
289	188225 365 273 286 272 285 14 0.973 5.3762194406142 40.637153833649 151.45310050325
288	188590 422 273 286 272 285 14 -1.0221101691481 0.73896020858083 1.1698240042664 3.4949616536812
285	189012 435 272 286 271 285 15 15.665889391282 16.884798193772 243.46315585681 3953.7310580292
283	189447 464 271 286 270 285 16 67.867958286207 69.376133998062 1098.4974697461 75425.394620387
282	189911 459 271 286 270 285 16 30.099491829414 256.61744246127 2176.4553127697 381789.561227
vector 300 RSUExampleScenario.node[60].veinsmobility posx ETV
vector 301 RSUExampleScenario.node[60].veinsmobility posy ETV
vector 302 RSUExampleScenario.node[61].veinsmobility posx ETV
vector 303 RSUExampleScenario.node[61].veinsmobility posy ETV
vector 304 RSUExampleScenario.node[60].veinsmobility speed ETV
vector 305 RSUExampleScenario.node[61].veinsmobility speed ETV
vector 306 RSUExampleScenario.node[60].veinsmobility acceleration ETV
vector 307 RSUExampleScenario.node[60].veinsmobility co2emission ETV
vector 308 RSUExampleScenario.node[61].veinsmobility acceleration ETV
vector 309 RSUExampleScenario.node[61].veinsmobility co2emission ETV
287	191032 702 273 299 272 298 27 0.973 5.2250303606858 59.673313160317 166.43192875987
286	191734 803 273 299 272 298 27 -4.5 1.8707178526791 0.805607691966 35.282314973849
284	192537 808 272 299 271 298 28 4.6066414728157 9.4317745786954 242.11524731364 2119.8994039386
281	193345 839 271 299 270 298 29 28.571856717077 69.370357870435 1716.8338377607 107415.85220181
280	194184 840 271 299 270 298 29 48.407796666299 272.30593933779 4438.0625134072 815655.7290573
vector 310 RSUExampleScenario.node[62].veinsmobility posx ETV
vector 311 RSUExampleScenario.node[62].veinsmobility posy ETV
vector 312 RSUExampleScenario.node[63].veinsmobility posx ETV
vector 313 RSUExampleScenario.node[63].veinsmobility posy ETV
vector 314 RSUExampleScenario.node[62].veinsmobility speed ETV
vector 315 RSUExampleScenario.node[63].veinsmobility speed ETV
vector 316 RSUExampleScenario.node[62].veinsmobility acceleration ETV
vector 317 RSUExampleScenario.node[62].veinsmobility co2emission ETV
vector 318 RSUExampleScenario.node[63].veinsmobility acceleration ETV
vector 319 RSUExampleScenario.node[63].veinsmobility co2emission ETV
299	195686 509 283 302 282 301 20 0.973 5.0731952156962 44.890690449357 133.68221848603
298	196195 606 283 302 282 301 20 -1.2852729503065 1.0336714846781 -0.026315973862074 7.2662623817605
295	196801 608 282 302 281 301 21 11.407597759387 12.692870709694 251.45437221476 3014.3710643854
293	197409 634 281 302 280 301 22 67.820192279711 69.366946854703 1511.4067049931 103843.4154619
292	198043 636 281 302 280 301 22 30.099491829414 269.72947155005 3176.1809510933 583548.41235276
297	198679 605 283 306 282 305 24 0.973 7.6905034452873 64.923266302471 262.602484873
296	199284 707 283 306 282 305 24 -4.5 2.5198821821017 0.29197681772057 73.129877224387
294	199991 726 282 306 281 305 25 0.038418077610369 13.085630977762 237.6791232248 2710.1035072636
291	200717 750 281 306 280 305 26 28.571856717077 69.374696836088 1554.2244331325 97601.558533941
290	201467 754 281 306 280 305 26 48.407796666299 264.72054849156 3751.6492693565 637523.91810854
vector 320 RSUExampleScenario.node[64].veinsmobility posx ETV
vector 321 RSUExampleScenario.node[64].veinsmobility posy ETV
vector 322 RSUExampleScenario.node[65].veinsmobility posx ETV
vector 323 RSUExampleScenario.node[65].veinsmobility posy ETV
309	202473 490 292 310 291 309 19 0.973 4.8770263316532 40.06292383001 108.32679703937
308	202963 584 292 310 291 309 19 -0.89756794685963 0.97450716912281 -0.13890261803754 4.2494028719153
305	203547 579 291 310 290 309 20 11.67200479181 12.861216397904 244.75506365734 2997.3470251295
303	204126 606 290 310 289 309 21 67.850626471406 69.378566314856 1442.4235365363 99084.396674833
302	204732 607 290 310 289 309 21 30.099491829414 262.70711913903 2966.4302418154 532242.7433224
vector 324 RSUExampleScenario.node[64].veinsmobility speed ETV
vector 325 RSUExampleScenario.node[65].veinsmobility speed ETV
vector 326 RSUExampleScenario.node[64].veinsmobility acceleration ETV
vector 327 RSUExampleScenario.node[64].veinsmobility co2emission ETV
vector 328 RSUExampleScenario.node[65].veinsmobility acceleration ETV
vector 329 RSUExampleScenario.node[65].veinsmobility co2emission ETV
307	205749 614 292 315 291 314 24 0.973 6.9376131965008 55.255539004788 179.05223156628
306	206363 726 292 315 291 314 24 -3.4838560251058 2.3431838384131 0.0092506461543973 36.71536515037
304	207089 723 291 315 290 314 25 3.796067338903 11.076707693693 242.33054241337 2432.0036993581
301	207812 751 290 315 289 314 26 28.571856717077 69.372720206107 1540.7330204698 96417.321149177
300	208563 751 290 315 289 314 26 48.407796666299 271.12017939484 3926.8259356845 711255.51260726
vector 330 RSUExampleScenario.node[66].veinsmobility posx ETV
vector 331 RSUExampleScenario.node[66].veinsmobility posy ETV
vector 332 RSUExampleScenario.node[67].veinsmobility posx ETV
vector 333 RSUExampleScenario.node[67].veinsmobility posy ETV
319	209566 469 302 319 301 318 18 0.973 4.7606924548953 40.683384588684 120.99644131215
318	210035 550 302 319 301 318 18 -0.96421755868942 0.87354312648531 -1.0015903171152 6.0379700272872
315	210585 549 301 319 300 318 19 12.399802312628 13.668099619263 248.58236298965 3254.9938394811
313	211134 578 300 319 299 318 20 67.827557643694 69.368231208655 1374.126828929 94419.580990366
312	211712 578 300 319 299 318 20 30.099491829414 266.0494511177 2856.0803035239 519263.98387301
vector 334 RSUExampleScenario.node[66].veinsmobility speed ETV
vector 335 RSUExampleScenario.node[67].veinsmobility speed ETV
vector 336 RSUExampleScenario.node[66].veinsmobility acceleration ETV
vector 337 RSUExampleScenario.node[66].veinsmobility co2emission ETV
vector 338 RSUExampleScenario.node[67].veinsmobility acceleration ETV
vector 339 RSUExampleScenario.node[67].veinsmobility co2emission ETV
317	212700 547 302 322 301 321 21 0.973 6.6492033120726 64.022649013143 264.68653589998
316	213247 606 302 322 301 321 21 -4.5 2.2234814630821 0.70419647044036 66.526220254224
314	213853 636 301 322 300 321 22 2.3442874699941 13.289265985456 241.03806270373 2850.9830278665
311	214489 666 300 322 299 321 23 28.571856717077 69.375355415754 1362.0167086198 85193.104336091
310	215155 663 300 322 299 321 23 48.407796666299 267.27879671827 3384.2843956815 594520.47244601
329	215818 432 312 328 311 327 17 0.973 5.3166629656881 40.781899723095 133.59413629287
328	216250 517 312 328 311 327 17 -1.0201129919384 0.9604835570557 -0.50279697040096 6.2240134038987
325	216767 521 311 328 310 327 18 12.917872113399 14.111053587114 244.08503211424 3312.700084446
323	217288 551 310 328 309 327 19 67.863005825453 69.364626758128 1305.0083316722 89642.215224857
322	217839 549 310 328 309 327 19 30.099491829414 260.79937926814 2650.9071196376 470664.98452839
vector 340 RSUExampleScenario.node[68].veinsmobility posx ETV
vector 341 RSUExampleScenario.node[68].veinsmobility posy ETV
vector 342 RSUExampleScenario.node[69].veinsmobility posx ETV
vector 343 RSUExampleScenario.node[69].veinsmobility posy ETV
vector 344 RSUExampleScenario.node[68].veinsmobility speed ETV
vector 345 RSUExampleScenario.node[69].veinsmobility speed ETV
vector 346 RSUExampleScenario.node[68].veinsmobility acceleration ETV
vector 347 RSUExampleScenario.node[68].veinsmobility co2emission ETV
vector 348 RSUExampleScenario.node[69].veinsmobility acceleration ETV
vector 349 RSUExampleScenario.node[69].veinsmobility co2emission ETV
327	219050 518 312 331 311 330 20 0.973 8.8345867556223 73.274031594421 398.25935781953
326	219568 566 312 331 311 330 20 -4.5 2.4152438272024 0.35344875466544 94.625372217782
324	220134 608 311 331 310 330 21 0.32867669013042 16.248956629499 233.33444521294 3151.3559504461
321	220742 638 310 331 309 330 22 28.571856717077 69.372783899851 1310.9328778608 82196.98716084
320	221380 637 310 331 309 330 22 48.407796666299 257.37913817987 3101.4946100834 511858.48380071
vector 350 RSUExampleScenario.node[70].veinsmobility posx ETV
vector 351 RSUExampleScenario.node[70].veinsmobility posy ETV
vector 352 RSUExampleScenario.node[71].veinsmobility posx ETV
vector 353 RSUExampleScenario.node[71].veinsmobility posy ETV
339	222269 472 321 338 320 337 18 0.973 4.5327656953193 42.835703836317 134.77659798618
338	222741 550 321 338 320 337 18 -1.1620263557183 0.78083835728467 -0.22994747103658 6.0982823487217
335	223291 550 320 338 319 337 19 12.705588036509 13.940267284507 253.86879274462 3395.2285206052
333	223841 578 319 338 318 337 20 67.823066047101 69.365483254723 1374.1529390795 94423.221180936
332	224419 579 319 338 318 337 20 30.099491829414 271.15320470811 2887.5843583724 532265.8086131
vector 354 RSUExampleScenario.node[70].veinsmobility speed ETV
vector 355 RSUExampleScenario.node[71].veinsmobility speed ETV
vector 356 RSUExampleScenario.node[70].veinsmobility acceleration ETV
vector 357 RSUExampleScenario.node[70].veinsmobility co2emission ETV
vector 358 RSUExampleScenario.node[71].veinsmobility acceleration ETV
vector 359 RSUExampleScenario.node[71].veinsmobility co2emission ETV
337	225408 567 321 342 320 341 22 0.973 5.2265071710438 54.180830456318 181.18786817741
336	225975 652 321 342 320 341 22 -4.5 1.581691185711 0.060013559204526 33.213254754994
334	226627 662 320 342 319 341 23 6.2653436965998 11.45033832212 239.98827017385 2535.7050542769
331	227289 696 319 342 318 341 24 28.571856717077 69.367893262674 1412.9150181306 88139.621952181
330	227985 693 319 342 318 341 24 48.407796666299 268.88880360099 3607.2838369343 652324.34868132
349	228678 432 331 347 330 346 17 0.973 5.7943413316935 42.250124517758 148.35525523475
348	229110 523 331 347 330 346 17 -0.92699339427054 1.0962891540956 0.69799212249927 5.5599875514011
345	229633 520 330 347 329 346 18 13.057819545046 14.279353650785 247.08435756309 3394.5788879392
343	230153 547 329 347 328 346 19 67.84371206568 69.364627585435 1304.9835385817 89638.791896584
342	230700 550 329 347 328 346 19 30.099491829414 263.16410448498 2658.9617981178 476280.06620765
vector 360 RSUExampleScenario.node[72].veinsmobility posx ETV
vector 361 RSUExampleScenario.node[72].veinsmobility posy ETV
vector 362 RSUExampleScenario.node[73].veinsmobility posx ETV
vector 363 RSUExampleScenario.node[73].veinsmobility posy ETV
vector 364 RSUExampleScenario.node[72].veinsmobility speed ETV
vector 365 RSUExampleScenario.node[73].veinsmobility speed ETV
vector 366 RSUExampleScenario.node[72].veinsmobility acceleration ETV
vector 367 RSUExampleScenario.node[72].veinsmobility co2emission ETV
vector 368 RSUExampleScenario.node[73].veinsmobility acceleration ETV
vector 369 RSUExampleScenario.node[73].veinsmobility co2emission ETV
347	231912 548 331 351 330 350 21 0.973 6.7227342448865 67.246005084563 302.39358842452
346	232460 615 331 351 330 350 21 -4.5 2.5762252358487 0.53147862085607 74.578387485383
344	233075 635 330 351 329 350 22 1.7705066155251 14.017633758235 246.02926532405 3039.1854543425
341	233710 665 329 351 328 350 23 28.571856717077 69.376740537871 1366.4533383914 85642.907576017
340	234375 663 329 351 328 350 23 48.407796666299 272.03805266657 3407.7768374229 604094.94035544
vector 370 RSUExampleScenario.node[74].veinsmobility posx ETV
vector 371 RSUExampleScenario.node[74].veinsmobility posy ETV
vector 372 RSUExampleScenario.node[75].veinsmobility posx ETV
vector 373 RSUExampleScenario.node[75].veinsmobility posy ETV
vector 374 RSUExampleScenario.node[74].veinsmobility speed ETV
vector 375 RSUExampleScenario.node[75].veinsmobility speed ETV
359	235418 520 340 359 339 358 20 0.973 4.3419188256929 40.572179225291 109.36389905544
358	235938 615 340 359 339 358 20 -0.8461126963608 0.83265819987282 0.065056216786616 4.263775114025
355	236553 607 339 359 338 358 21 11.375671691945 12.437969000809 251.0319574497 3003.6560653935
353	237160 637 338 359 337 358 22 67.853325298275 69.367010398293 1511.5202335422 103858.97053967
352	237797 635 338 359 337 358 22 30.099491829414 268.61077942034 3176.4255462714 580501.23098794
vector 376 RSUExampleScenario.node[74].veinsmobility acceleration ETV
vector 377 RSUExampleScenario.node[74].veinsmobility co2emission ETV
vector 378 RSUExampleScenario.node[75].veinsmobility acceleration ETV
vector 379 RSUExampleScenario.node[75].veinsmobility co2emission ETV
357	238714 557 340 361 339 360 22 0.973 8.0559935212329 71.602051777444 352.63622848334
356	239271 658 340 361 339 360 22 -4.2939824513512 2.5555772969732 0.21414178300184 83.578046724806
354	239929 664 339 361 338 360 23 0.6244129763365 14.505635610188 244.53951563858 3047.3609823853
351	240593 694 338 361 337 360 24 28.571856717077 69.379012072632 1433.563544072 90020.095005741
350	241287 687 338 361 337 360 24 48.407796666299 270.16537837496 3515.6954309857 611151.03368522
vector 380 RSUExampleScenario.node[76].veinsmobility posx ETV
vector 381 RSUExampleScenario.node[76].veinsmobility posy ETV
vector 382 RSUExampleScenario.node[77].veinsmobility posx ETV
vector 383 RSUExampleScenario.node[77].veinsmobility posy ETV
vector 384 RSUExampleScenario.node[76].veinsmobility speed ETV
vector 385 RSUExampleScenario.node[77].veinsmobility speed ETV
vector 386 RSUExampleScenario.node[76].veinsmobility acceleration ETV
vector 387 RSUExampleScenario.node[76].veinsmobility co2emission ETV
vector 388 RSUExampleScenario.node[77].veinsmobility acceleration ETV
vector 389 RSUExampleScenario.node[77].veinsmobility co2emission ETV
369	242636 519 350 369 349 368 20 0.973 4.6173029052118 44.029028921268 125.2747283158
368	243155 613 350 369 349 368 20 -1.103823522036 0.89734691036865 -0.63666745957453 6.7922183318395
365	243768 601 349 369 348 368 21 11.471634536954 12.57545805899 251.92817205039 3025.6357477786
363	244369 634 348 369 347 368 22 67.852466350882 69.368422560577 1511.42003304 103845.20683743
362	245003 635 348 369 347 368 22 30.099491829414 270.20359469306 3177.825340113 583713.95923825
367	245638 574 350 372 349 371 23 0.973 8.6905556454739 63.975788123718 275.84765536273
366	246212 674 350 372 349 371 23 -4.5 2.2979134075576 -0.54009947048035 74.329294918441
364	246886 695 349 372 348 371 24 0.61255111123884 14.438586044253 245.16626882069 3011.5941603697
361	247581 725 348 372 347 371 25 28.571856717077 69.375037756819 1501.6114108935 94631.642120103
360	248306 723 348 372 347 371 25 48.407796666299 270.79778224691 3652.2427680438 629184.49240435
379	249029 336 360 373 359 372 14 0.973 5.9920785286499 33.177058360772 121.29703255631
378	249365 426 360 373 359 372 14 -1.0362398229709 0.89226470342837 -1.932645071758 5.1802230164009
375	249791 431 359 373 358 372 15 14.911981163539 16.861497018264 242.58220910285 3926.7994465573
373	250222 462 358 373 357 372 16 67.865557803896 69.373786353329 1098.5762388578 75436.057373927
372	250684 459 358 373 357 372 16 30.099491829414 257.66022793931 2197.2565929082 388311.08268002
vector 390 RSUExampleScenario.node[78].veinsmobility posx ETV
vector 391 RSUExampleScenario.node[78].veinsmobility posy ETV
vector 392 RSUExampleScenario.node[79].veinsmobility posx ETV
vector 393 RSUExampleScenario.node[79].veinsmobility posy ETV
vector 394 RSUExampleScenario.node[78].veinsmobility speed ETV
vector 395 RSUExampleScenario.node[79].veinsmobility speed ETV
vector 396 RSUExampleScenario.node[78].veinsmobility acceleration ETV
vector 397 RSUExampleScenario.node[78].veinsmobility co2emission ETV
vector 398 RSUExampleScenario.node[79].veinsmobility acceleration ETV
vector 399 RSUExampleScenario.node[79].veinsmobility co2emission ETV
377	251805 538 360 380 359 379 21 0.973 7.2583456639516 56.801486203037 220.25744462649
376	252343 619 360 380 359 379 21 -4.5 2.2119561119704 0.14529364074115 47.885230961408
374	252962 635 359 380 358 379 22 4.422284296593 12.174919133567 236.87383052129 2634.6430519389
371	253597 666 358 380 357 379 23 28.571856717077 69.368002790085 1355.1892634503 84565.506571414
370	254263 664 358 380 357 379 23 48.407796666299 264.58801192347 3402.5418280998 602639.70442621
389	254927 402 369 383 368 382 15 0.973 6.0269727540489 40.796689387335 142.12714625476
388	255329 460 369 383 368 382 15 -1.2153697194066 0.94399553635158 0.073587287031113 4.8839309706844
385	255789 461 368 383 367 382 16 15.148387337151 16.406958513941 253.15506541699 4008.757216212
383	256250 491 367 383 366 382 17 67.869239753424 69.376959566196 1167.7243405924 80217.841539541
382	256741 492 367 383 366 382 17 30.099491829414 266.75740753315 2417.6459862099 441054.87784837
vector 400 RSUExampleScenario.node[80].veinsmobility posx ETV
vector 401 RSUExampleScenario.node[80].veinsmobility posy ETV
vector 402 RSUExampleScenario.node[81].veinsmobility posx ETV
vector 403 RSUExampleScenario.node[81].veinsmobility posy ETV
387	257485 471 369 386 368 385 18 0.973 10.796165251736 59.775321047233 325.33492679715
386	257956 519 369 386 368 385 18 -4.5 2.5181996003259 -0.85603535652626 67.14788561907
384	258475 550 368 386 367 385 19 4.1040062263148 15.295790167661 236.7238476073 3151.7309825856
381	259025 578 367 386 366 385 20 28.571856717077 69.368458587874 1176.9004652003 73353.272189911
380	259603 580 367 386 366 385 20 48.407796666299 262.09665626249 2895.8868460898 501110.73717603
vector 404 RSUExampleScenario.node[80].veinsmobility speed ETV
vector 405 RSUExampleScenario.node[81].veinsmobility speed ETV
vector 406 RSUExampleScenario.node[80].veinsmobility acceleration ETV
vector 407 RSUExampleScenario.node[80].veinsmobility co2emission ETV
vector 408 RSUExampleScenario.node[81].veinsmobility acceleration ETV
vector 409 RSUExampleScenario.node[81].veinsmobility co2emission ETV
399	260593 422 379 394 378 393 16 0.973 6.263189372382 40.914613575237 147.42965874674
398	261015 489 379 394 378 393 16 -0.9974154465599 1.1159626303706 0.12382033239119 5.5101074075848
395	261504 491 378 394 377 393 17 14.008482813042 15.231086693749 250.02854561228 3679.788600027
393	261995 521 377 394 376 393 18 67.842427827653 69.369639381857 1236.5379856212 84953.068153841
392	262516 521 377 394 376 393 18 30.099491829414 265.37380363176 2542.2295923715 460837.60418529
vector 410 RSUExampleScenario.node[82].veinsmobility posx ETV
vector 411 RSUExampleScenario.node[82].veinsmobility posy ETV
vector 412 RSUExampleScenario.node[83].veinsmobility posx ETV
vector 413 RSUExampleScenario.node[83].veinsmobility posy ETV
vector 414 RSUExampleScenario.node[82].veinsmobility speed ETV
vector 415 RSUExampleScenario.node[83].veinsmobility speed ETV
vector 416 RSUExampleScenario.node[82].veinsmobility acceleration ETV
vector 417 RSUExampleScenario.node[82].veinsmobility co2emission ETV
vector 418 RSUExampleScenario.node[83].veinsmobility acceleration ETV
vector 419 RSUExampleScenario.node[83].veinsmobility co2emission ETV
397	263699 529 379 399 378 398 21 0.973 7.6338601739706 58.941571259301 255.34600457964
396	264228 620 379 399 378 398 21 -4.5 2.5190366774565 0.17228499320336 50.122779658345
394	264848 635 378 399 377 398 22 4.1929640015875 12.359159460721 237.99810288767 2663.3014730727
391	265483 667 377 399 376 398 23 28.571856717077 69.368392036332 1354.9875906134 84503.987993228
390	266150 665 377 399 376 398 23 48.407796666299 265.57044077146 3413.5772254599 607430.8497009
vector 420 RSUExampleScenario.node[84].veinsmobility posx ETV
vector 421 RSUExampleScenario.node[84].veinsmobility posy ETV
vector 422 RSUExampleScenario.node[85].veinsmobility posx ETV
vector 423 RSUExampleScenario.node[85].veinsmobility posy ETV
409	267067 487 388 406 387 405 19 0.973 4.9471901680716 44.157531628232 131.30382461852
408	267554 577 388 406 387 405 19 -1.1732982681599 1.0117108572507 0.21426773231942 6.84069740513
405	268131 578 387 406 386 405 20 11.506128240867 12.74449123142 244.3814339552 2988.6180478567
403	268709 608 386 406 385 405 21 67.848379439855 69.379173591568 1442.433564209 99085.80089823
402	269317 606 386 406 385 405 21 30.099491829414 261.85370672512 2956.1768192153 527658.55270093
vector 424 RSUExampleScenario.node[84].veinsmobility speed ETV
vector 425 RSUExampleScenario.node[85].veinsmobility speed ETV
vector 426 RSUExampleScenario.node[84].veinsmobility acceleration ETV
vector 427 RSUExampleScenario.node[84].veinsmobility co2emission ETV
vector 428 RSUExampleScenario.node[85].veinsmobility acceleration ETV
vector 429 RSUExampleScenario.node[85].veinsmobility co2emission ETV
407	270333 568 388 409 387 408 22 0.973 8.7577678476606 66.246473064692 305.09298869109
406	270901 646 388 409 387 408 22 -4.5 2.5046265735058 -0.57759616721887 87.263374944743
404	271547 667 387 409 386 408 23 0.038837706008286 14.234136819712 239.75352533151 2990.8983802664
401	272214 695 386 409 385 408 24 28.571856717077 69.370667520961 1433.4687780298 89999.744250262
400	272909 695 386 409 385 408 24 48.407796666299 265.72183393335 3467.0827285063 590963.66938461
419	273604 432 398 414 397 413 17 0.973 4.2729153222371 37.852893273139 109.46237600201
418	274036 517 398 414 397 413 17 -0.95561205523554 0.67751288949512 -0.80613502410706 4.3174755552969
415	274553 516 397 414 396 413 18 13.018379344335 14.172617181842 244.82794055166 3332.0123560293
413	275069 549 396 414 395 413 19 67.856028307429 69.379563686994 1305.0260491863 89644.701392546
412	275618 547 396 414 395 413 19 30.099491829414 261.79956120732 2660.2594039401 474725.10696386
vector 430 RSUExampleScenario.node[86].veinsmobility posx ETV
vector 431 RSUExampleScenario.node[86].veinsmobility posy ETV
vector 432 RSUExampleScenario.node[87].veinsmobility posx ETV
vector 433 RSUExampleScenario.node[87].veinsmobility posy ETV
vector 434 RSUExampleScenario.node[86].veinsmobility speed ETV
vector 435 RSUExampleScenario.node[87].veinsmobility speed ETV
vector 436 RSUExampleScenario.node[86].veinsmobility acceleration ETV
vector 437 RSUExampleScenario.node[86].veinsmobility co2emission ETV
vector 438 RSUExampleScenario.node[87].veinsmobility acceleration ETV
vector 439 RSUExampleScenario.node[87].veinsmobility co2emission ETV
417	276827 540 398 417 397 416 20 0.973 8.4061803150146 66.536262284675 342.03097594784
416	277367 588 398 417 397 416 20 -4.5 2.575275457697 -0.20462526257616 88.143960476476
414	277955 605 397 417 396 416 21 0.42332072585454 15.704278856703 232.05899662943 3083.1517431324
411	278560 636 396 417 395 416 22 28.571856717077 69.373289905363 1309.9307022054 82088.56550257
410	279196 636 396 417 395 416 22 48.407796666299 256.53745315518 3101.5068691081 511961.21488383
vector 440 RSUExampleScenario.node[88].veinsmobility posx ETV
vector 441 RSUExampleScenario.node[88].veinsmobility posy ETV
vector 442 RSUExampleScenario.node[89].veinsmobility posx ETV
vector 443 RSUExampleScenario.node[89].veinsmobility posy ETV
vector 444 RSUExampleScenario.node[88].veinsmobility speed ETV
vector 445 RSUExampleScenario.node[89].veinsmobility speed ETV
429	280212 508 408 426 407 425 19 0.973 4.0494500135043 41.654953210441 111.36670051712
428	280720 581 408 426 407 425 19 -0.86590075723361 0.67358087864704 0.1154743517749 3.5769257338328
425	281301 578 407 426 406 425 20 12.263953446808 13.510228758586 256.27650470972 3286.6878660554
423	281879 608 406 426 405 425 21 67.83821913277 69.373516749004 1442.8381245517 99140.861508781
422	282487 605 406 426 405 425 21 30.099491829414 273.38839554779 3060.0742971991 569301.11592033
vector 446 RSUExampleScenario.node[88].veinsmobility acceleration ETV
vector 447 RSUExampleScenario.node[88].veinsmobility co2emission ETV
vector 448 RSUExampleScenario.node[89].veinsmobility acceleration ETV
vector 449 RSUExampleScenario.node[89].veinsmobility co2emission ETV
427	283374 555 408 429 407 428 22 0.973 8.0352123717264 67.424354562628 305.94123568137
426	283929 655 408 429 407 428 22 -4.444398709503 2.2258920540335 -0.26126825176179 80.067249905289
424	284584 665 407 429 406 428 23 0.25533338624772 15.024730734502 237.46763860025 3013.6843428061
421	285249 693 406 429 405 428 24 28.571856717077 69.37450998586 1436.4096605176 90276.966627222
420	285942 694 406 429 405 428 24 48.407796666299 262.74605766121 3428.2862991074 574300.19055404
vector 450 RSUExampleScenario.node[90].veinsmobility posx ETV
vector 451 RSUExampleScenario.node[90].veinsmobility posy ETV
vector 452 RSUExampleScenario.node[91].veinsmobility posx ETV
vector 453 RSUExampleScenario.node[91].veinsmobility posy ETV
vector 454 RSUExampleScenario.node[90].veinsmobility speed ETV
vector 455 RSUExampleScenario.node[91].veinsmobility speed ETV
vector 456 RSUExampleScenario.node[90].veinsmobility acceleration ETV
vector 457 RSUExampleScenario.node[90].veinsmobility co2emission ETV
vector 458 RSUExampleScenario.node[91].veinsmobility acceleration ETV
vector 459 RSUExampleScenario.node[91].veinsmobility co2emission ETV
439	287298 603 417 439 416 438 23 0.973 4.2745172106913 45.387658660054 106.21281564464
438	287901 704 417 439 416 438 23 -0.98071304983459 0.94684798477683 0.46847921193112 4.5694213312607
435	288605 696 416 439 415 438 24 9.9104089415379 11.059332031964 250.19092954471 2610.9260540734
433	289301 723 415 439 414 438 25 67.822491907882 69.373307580461 1717.7352754742 118034.9251551
432	290024 723 415 439 414 438 25 30.099491829414 269.15093783691 3631.8186616806 665854.15594093
437	290747 632 417 441 416 440 25 0.973 10.379193652781 79.945002869154 434.96144419605
436	291379 736 417 441 416 440 25 -4.5 2.5990308237029 -0.43284262164453 104.26227554426
434	292115 758 416 441 415 440 26 0.00024879841076591 14.10604223777 243.76519541296 2889.454697261
431	292873 780 415 441 414 440 27 28.571856717077 69.379294418546 1630.6971719032 103017.51734165
430	293653 781 415 441 414 440 27 48.407796666299 269.78114072009 4003.6743385768 699246.88117308
vector 460 RSUExampleScenario.node[92].veinsmobility posx ETV
vector 461 RSUExampleScenario.node[92].veinsmobility posy ETV
vector 462 RSUExampleScenario.node[93].veinsmobility posx ETV
vector 463 RSUExampleScenario.node[93].veinsmobility posy ETV
vector 464 RSUExampleScenario.node[92].veinsmobility speed ETV
vector 465 RSUExampleScenario.node[93].veinsmobility speed ETV
449	294814 471 427 445 426 444 19 0.973 4.7250917505649 41.787548601074 120.72027139126
448	295285 578 427 445 426 444 19 -0.99790080790408 0.9073990490986 -0.89204098246992 6.4185572586411
445	295863 580 426 445 425 444 20 11.722359710202 12.818539685562 246.44437843403 3039.2047282821
443	296443 609 425 445 424 444 21 67.848341323991 69.378061323679 1442.4557749639 99088.769334621
442	297052 605 425 445 424 444 21 30.099491829414 264.71201872383 2978.942207825 536374.76156849
vector 466 RSUExampleScenario.node[92].veinsmobility acceleration ETV
vector 467 RSUExampleScenario.node[92].veinsmobility co2emission ETV
vector 468 RSUExampleScenario.node[93].veinsmobility acceleration ETV
vector 469 RSUExampleScenario.node[93].veinsmobility co2emission ETV
447	297939 575 427 449 426 448 23 0.973 9.6422668919218 66.883097451651 319.20841182803
446	298514 688 427 449 426 448 23 -4.1715794622316 2.5748229540652 -0.87623088499531 84.968716121389
444	299202 698 426 449 425 448 24 0.013553217890785 14.361145042333 235.54567620277 2941.5289845363
441	299900 721 425 449 424 448 25 28.571856717077 69.374891453641 1497.51898557 94036.557904039
440	300621 723 425 449 424 448 25 48.407796666299 261.59076204543 3551.1478686826 589613.02091216
vector 470 RSUExampleScenario.node[94].veinsmobility posx ETV
vector 471 RSUExampleScenario.node[94].veinsmobility posy ETV
vector 472 RSUExampleScenario.node[95].veinsmobility posx ETV
vector 473 RSUExampleScenario.node[95].veinsmobility posy ETV
vector 474 RSUExampleScenario.node[94].veinsmobility speed ETV
vector 475 RSUExampleScenario.node[95].veinsmobility speed ETV
459	301724 517 436 455 435 454 20 0.973 4.9071938006013 43.972024115053 129.08478876995
458	302241 610 436 455 435 454 20 -1.0273692216258 0.99619270537514 0.72899011848494 5.6388404626376
455	302851 606 435 455 434 454 21 11.30865805593 12.538388733162 248.51310946324 2943.8213069313
453	303457 636 434 455 433 454 22 67.821633587382 69.368279034341 1511.3934152825 103841.57715597
452	304093 636 434 455 433 454 22 30.099491829414 266.23192331697 3143.9368484452 569495.73686883
vector 476 RSUExampleScenario.node[94].veinsmobility acceleration ETV
vector 477 RSUExampleScenario.node[94].veinsmobility co2emission ETV
vector 478 RSUExampleScenario.node[95].veinsmobility acceleration ETV
vector 479 RSUExampleScenario.node[95].veinsmobility co2emission ETV
457	305011 556 436 457 435 456 22 0.973 9.4711570882646 71.625899842316 370.03808879171
456	305567 642 436 457 435 456 22 -4.5 2.3248834555969 0.66174474738073 80.578704622011
454	306209 666 435 457 434 456 23 0.023712010863996 15.587603251945 238.29558695232 3073.0716346185
451	306875 692 434 457 433 456 24 28.571856717077 69.375157832766 1438.8230218145 90524.350878346
450	307567 693 434 457 433 456 24 48.407796666299 262.55825260022 3424.2779437024 571926.67808444
469	308260 413 446 461 445 460 16 0.973 5.3694962616162 37.62547399658 120.68041671211
468	308673 489 446 461 445 460 16 -0.85967013153713 0.91555599526036 -0.23526497674175 4.0752259811642
465	309162 491 445 461 444 460 17 13.709622335237 14.939146018204 242.99021672099 3475.8265915333
463	309653 522 444 461 443 460 18 67.854448173003 69.376007815318 1235.8710479185 84861.875763209
462	310175 518 444 461 443 460 18 30.099491829414 259.15543866776 2475.0151682756 436505.72050736
vector 480 RSUExampleScenario.node[96].veinsmobility posx ETV
vector 481 RSUExampleScenario.node[96].veinsmobility posy ETV
vector 482 RSUExampleScenario.node[97].veinsmobility posx ETV
vector 483 RSUExampleScenario.node[97].veinsmobility posy ETV
vector 484 RSUExampleScenario.node[96].veinsmobility speed ETV
vector 485 RSUExampleScenario.node[97].veinsmobility speed ETV
vector 486 RSUExampleScenario.node[96].veinsmobility acceleration ETV
vector 487 RSUExampleScenario.node[96].veinsmobility co2emission ETV
vector 488 RSUExampleScenario.node[97].veinsmobility acceleration ETV
vector 489 RSUExampleScenario.node[97].veinsmobility co2emission ETV
467	311355 549 446 466 445 465 21 0.973 7.5080941923597 65.295465292963 283.42487349901
466	311904 617 446 466 445 465 21 -4.5 2.2547893451061 0.86660851622 73.138529223803
464	312521 636 445 466 444 465 22 1.2074391771412 14.495312756194 243.15189288758 3059.2865745368
461	313157 659 444 466 443 465 23 28.571856717077 69.36996682946 1370.4114217534 86021.781427897
460	313816 666 444 466 443 465 23 48.407796666299 268.18658013138 3359.1311836153 582436.9087396
479	314482 423 456 471 455 470 16 0.973 5.1104317124095 40.201371208644 136.11927299934
478	314905 488 456 471 455 470 16 -1.2170867198147 0.77382720110472 -0.11611539286096 5.0293966180389
475	315393 490 455 471 454 470 17 14.364661467869 15.6254964598 253.15673350795 3772.6194836799
473	315883 520 454 471 453 470 18 67.839763420904 69.368000696133 1236.6858522973 84973.460284377
472	316403 520 454 471 453 470 18 30.099491829414 268.7296594414 2566.1462871856 469844.12389255
[...]
vector 580 RSUExampleScenario.node[116].veinsmobility posx ETV
vector 581 RSUExampleScenario.node[116].veinsmobility posy ETV
vector 582 RSUExampleScenario.node[117].veinsmobility posx ETV
vector 583 RSUExampleScenario.node[117].veinsmobility posy ETV
569	371147 461 542 559 541 558 18 0.973 5.0604516916541 41.497886396735 131.08991558262
568	371608 548 542 559 541 558 18 -0.98657056512311 0.95013195143547 -0.45823785047978 6.4462756198147
565	372156 551 541 559 540 558 19 12.414134303901 13.440980944551 244.28125159437 3142.9277681065
563	372707 578 540 559 539 558 20 67.83499961732 69.371733696564 1373.7569881869 94368.550718512
562	373285 578 540 559 539 558 20 30.099491829414 261.35475358961 2806.5598994962 500422.23918156
vector 584 RSUExampleScenario.node[116].veinsmobility speed ETV
vector 585 RSUExampleScenario.node[117].veinsmobility speed ETV
vector 586 RSUExampleScenario.node[116].veinsmobility acceleration ETV
vector 587 RSUExampleScenario.node[116].veinsmobility co2emission ETV
vector 588 RSUExampleScenario.node[117].veinsmobility acceleration ETV
vector 589 RSUExampleScenario.node[117].veinsmobility co2emission ETV
567	374279 499 542 561 541 560 20 0.973 9.819713637972 58.0429644117 289.1682226926
566	374778 604 542 561 541 560 20 -4.0918753763428 2.5217568429885 0.47960088499822 52.202837437545
564	375382 607 541 561 540 560 21 3.942882305612 13.095559261938 236.39920839868 2792.6349442635
561	375989 636 540 561 539 560 22 28.571856717077 69.367725512873 1292.1841499999 80380.368495045
560	376625 635 540 561 539 560 22 48.407796666299 262.9306712718 3205.9018476314 559407.7752287
579	377260 431 552 568 551 567 17 0.973 5.8765271856345 40.659220668725 140.38682552034
578	377691 521 552 568 551 567 17 -1.0835531768622 1.0928753120592 -0.69629520641174 6.5591050439778
575	378212 521 551 568 550 567 18 13.316104945085 14.523706374979 250.96061093855 3502.1154826741
573	378733 549 550 568 549 567 19 67.855801008311 69.376754653648 1305.0894539599 89653.158989895
572	379282 550 550 568 549 567 19 30.099491829414 267.59909156238 2713.061160834 496074.08363676
vector 590 RSUExampleScenario.node[118].veinsmobility posx ETV
vector 591 RSUExampleScenario.node[118].veinsmobility posy ETV
vector 592 RSUExampleScenario.node[119].veinsmobility posx ETV
vector 593 RSUExampleScenario.node[119].veinsmobility posy ETV
vector 594 RSUExampleScenario.node[118].veinsmobility speed ETV
vector 595 RSUExampleScenario.node[119].veinsmobility speed ETV
vector 596 RSUExampleScenario.node[118].veinsmobility acceleration ETV
vector 597 RSUExampleScenario.node[118].veinsmobility co2emission ETV
vector 598 RSUExampleScenario.node[119].veinsmobility acceleration ETV
vector 599 RSUExampleScenario.node[119].veinsmobility co2emission ETV
577	380504 520 552 571 551 570 20 0.973 7.5040634014575 59.822162027722 271.0418162184
576	381024 601 552 571 551 570 20 -4.1808233610471 2.5350605035201 -0.18514283902478 56.910049621712
574	381625 606 551 571 550 570 21 3.4139393605242 13.811471155442 236.3600144688 2862.1881966669
571	382231 635 550 571 549 570 22 28.571856717077 69.37149617165 1297.2611837966 80876.399893963
570	382866 637 550 571 549 570 22 48.407796666299 262.89210749178 3185.6065504365 549717.87402321
589	383503 393 561 575 560 574 15 0.973 6.0734414983663 36.238804081684 121.91532551935
588	383896 456 561 575 560 574 15 -0.7005904318532 0.9790535912849 -0.35142603944987 3.3945815500805
585	384352 464 560 575 559 574 16 15.127767285339 16.106820876624 248.79000315405 3869.8999396224
583	384816 490 559 575 558 574 17 67.827807514159 69.36223483475 1167.65930002 80208.901730986
582	385306 493 559 575 558 574 17 30.099491829414 263.30307147631 2375.2558891935 426624.32187962
vector 600 RSUExampleScenario.node[120].veinsmobility posx ETV
vector 601 RSUExampleScenario.node[120].veinsmobility posy ETV
vector 602 RSUExampleScenario.node[121].veinsmobility posx ETV
vector 603 RSUExampleScenario.node[121].veinsmobility posy ETV
587	386055 450 561 578 560 577 18 0.973 10.845493334859 61.013055238083 349.86155186058
586	386505 531 561 578 560 577 18 -4.5 2.3693620962789 -0.81769081875682 61.860855052546
584	387036 549 560 578 559 577 19 4.2340423500234 15.677164882766 236.80906685799 3194.58313354
581	387585 578 559 578 558 577 20 28.571856717077 69.371713322787 1177.3371064435 73362.802525355
580	388163 575 559 578 558 577 20 48.407796666299 261.65111420193 2869.4653660816 490655.82633146
vector 604 RSUExampleScenario.node[120].veinsmobility speed ETV
vector 605 RSUExampleScenario.node[121].veinsmobility speed ETV
vector 606 RSUExampleScenario.node[120].veinsmobility acceleration ETV
vector 607 RSUExampleScenario.node[120].veinsmobility co2emission ETV
vector 608 RSUExampleScenario.node[121].veinsmobility acceleration ETV
vector 609 RSUExampleScenario.node[121].veinsmobility co2emission ETV
599	389154 395 571 585 570 584 15 0.973 6.0402951372558 36.137473034831 117.35445154219
598	389549 458 571 585 570 584 15 -0.68863925773185 0.94827183098532 0.073813746334054 2.5426238786532
595	390007 461 570 585 569 584 16 15.122713804427 16.353664393695 251.43968712774 3953.1385455388
593	390468 493 569 585 568 584 17 67.822481739821 69.378865683166 1167.7049845106 80215.266387756
592	390961 490 569 585 568 584 17 30.099491829414 265.18793348415 2395.2694257762 434032.73398533
vector 610 RSUExampleScenario.node[122].veinsmobility posx ETV
vector 611 RSUExampleScenario.node[122].veinsmobility posy ETV
vector 612 RSUExampleScenario.node[123].veinsmobility posx ETV
vector 613 RSUExampleScenario.node[123].veinsmobility posy ETV
597	391707 481 571 588 570 587 18 0.973 8.6782579978889 61.98285088659 326.64554708287
596	392188 514 571 588 570 587 18 -4.5 2.5410505574662 0.85613947142847 62.620349654136
594	392702 549 570 588 569 587 19 5.3145699841249 14.723587580145 242.32476824721 3210.5907012532
591	393251 579 569 588 568 587 20 28.571856717077 69.377039792922 1170.7070302458 72753.994751659
590	393830 578 569 588 568 587 20 48.407796666299 267.47915181503 2942.2121285811 522773.18386683
vector 614 RSUExampleScenario.node[122].veinsmobility speed ETV
vector 615 RSUExampleScenario.node[123].veinsmobility speed ETV
vector 616 RSUExampleScenario.node[122].veinsmobility acceleration ETV
vector 617 RSUExampleScenario.node[122].veinsmobility co2emission ETV
vector 618 RSUExampleScenario.node[123].veinsmobility acceleration ETV
vector 619 RSUExampleScenario.node[123].veinsmobility co2emission ETV
609	394824 421 580 596 579 595 17 0.973 5.6441087260295 39.816136958885 135.49481994847
608	395245 522 580 596 579 595 17 -0.99103972644079 1.0420317717595 -0.97311192161869 6.3133558104409
605	395767 520 579 596 578 595 18 13.157671050965 14.371809152193 250.48960164666 3488.7902102715
603	396287 544 578 596 577 595 19 67.857955011424 69.377909807017 1305.0465008224 89647.358720999
602	396831 550 578 596 577 595 19 30.099491829414 267.32193059569 2699.774483574 491044.88562099
vector 620 RSUExampleScenario.node[124].veinsmobility posx ETV
vector 621 RSUExampleScenario.node[124].veinsmobility posy ETV
vector 622 RSUExampleScenario.node[125].veinsmobility posx ETV
vector 623 RSUExampleScenario.node[125].veinsmobility posy ETV
vector 624 RSUExampleScenario.node[124].veinsmobility speed ETV
vector 625 RSUExampleScenario.node[125].veinsmobility speed ETV
vector 626 RSUExampleScenario.node[124].veinsmobility acceleration ETV
vector 627 RSUExampleScenario.node[124].veinsmobility co2emission ETV
vector 628 RSUExampleScenario.node[125].veinsmobility acceleration ETV
vector 629 RSUExampleScenario.node[125].veinsmobility co2emission ETV
607	398053 538 580 600 579 599 21 0.973 5.9064982834932 55.11565810323 196.87439625791
606	398591 632 580 600 579 599 21 -3.5951288566226 1.7370669565164 0.38970302301459 29.750388196474
604	399223 636 579 600 578 599 22 6.0119652646967 12.126429377041 239.10132415284 2647.3713108645
601	399859 665 578 600 577 599 23 28.571856717077 69.379523780659 1349.5459678333 83963.585425334
600	400524 666 578 600 577 599 23 48.407796666299 267.21421584561 3412.4439994173 609610.60098136
619	401190 384 590 604 589 603 15 0.973 6.1985580248989 39.003233270147 144.39472648406
618	401574 455 590 604 589 603 15 -1.109652611753 1.0580057155807 -0.59630209258757 5.8934772343268
615	402029 464 589 604 588 603 16 14.471003084901 15.672218792621 243.01420442442 3693.6296952812
613	402493 491 588 604 587 603 17 67.83274812097 69.363880098342 1167.6203268714 80203.453244411
612	402984 492 588 604 587 603 17 30.099491829414 258.11956399225 2342.8745375452 413924.54087142
vector 630 RSUExampleScenario.node[126].veinsmobility posx ETV
vector 631 RSUExampleScenario.node[126].veinsmobility posy ETV
vector 632 RSUExampleScenario.node[127].veinsmobility posx ETV
vector 633 RSUExampleScenario.node[127].veinsmobility posy ETV
vector 634 RSUExampleScenario.node[126].veinsmobility speed ETV
vector 635 RSUExampleScenario.node[127].veinsmobility speed ETV
617	403862 491 590 608 589 607 19 0.973 8.8388894814925 49.543131707119 213.79988401687
616	404353 563 590 608 589 607 19 -4.5 2.4180440436816 -0.62240391622763 34.858203113067
614	404916 578 589 608 588 607 20 7.3323671006347 13.224950495868 241.54471666036 2951.0562041354
611	405494 608 588 608 587 607 21 28.571856717077 69.375070938972 1231.5256309357 76645.710091118
610	406102 609 588 608 587 607 21 48.407796666299 268.47217008072 3147.0546584199 569412.57487771
vector 636 RSUExampleScenario.node[126].veinsmobility acceleration ETV
vector 637 RSUExampleScenario.node[126].veinsmobility co2emission ETV
vector 638 RSUExampleScenario.node[127].veinsmobility acceleration ETV
vector 639 RSUExampleScenario.node[127].veinsmobility co2emission ETV
vector 640 RSUExampleScenario.node[128].veinsmobility posx ETV
vector 641 RSUExampleScenario.node[128].veinsmobility posy ETV
vector 642 RSUExampleScenario.node[129].veinsmobility posx ETV
vector 643 RSUExampleScenario.node[129].veinsmobility posy ETV
629	407253 441 600 617 599 616 18 0.973 5.6487461281926 45.255441326386 160.56349245708
628	407694 545 600 617 599 616 18 -1.1451970356517 1.0987196404953 -0.68507604289334 9.3465805350314
625	408239 550 599 617 598 616 19 12.515907265127 13.734713871099 249.10073615694 3268.8727115657
623	408789 577 598 617 597 616 20 67.830765569805 69.369404595127 1373.9365937618 94393.27979802
622	409366 579 598 617 597 616 20 30.099491829414 266.50121932149 2844.0603472925 515420.21296045
vector 644 RSUExampleScenario.node[128].veinsmobility speed ETV
vector 645 RSUExampleScenario.node[129].veinsmobility speed ETV
vector 646 RSUExampleScenario.node[128].veinsmobility acceleration ETV
vector 647 RSUExampleScenario.node[128].veinsmobility co2emission ETV
vector 648 RSUExampleScenario.node[129].veinsmobility acceleration ETV
vector 649 RSUExampleScenario.node[129].veinsmobility co2emission ETV
627	410361 546 600 620 599 619 21 0.973 8.321292739071 66.644005276082 297.26599209009
626	410907 616 600 620 599 619 21 -4.5 2.3268176693469 0.33493644148111 70.643811408026
624	411523 632 599 620 598 619 22 2.2268145496525 14.072399495073 244.36375831449 2991.8055668522
621	412155 665 598 620 597 619 23 28.571856717077 69.377165174497 1365.8434083636 85567.32674865
620	412820 665 598 620 597 619 23 48.407796666299 270.40522793424 3391.5078149835 597406.01460676
vector 650 RSUExampleScenario.node[130].veinsmobility posx ETV
vector 651 RSUExampleScenario.node[130].veinsmobility posy ETV
vector 652 RSUExampleScenario.node[131].veinsmobility posx ETV
vector 653 RSUExampleScenario.node[131].veinsmobility posy ETV
vector 654 RSUExampleScenario.node[130].veinsmobility speed ETV
vector 655 RSUExampleScenario.node[131].veinsmobility speed ETV
vector 656 RSUExampleScenario.node[130].veinsmobility acceleration ETV
vector 657 RSUExampleScenario.node[130].veinsmobility co2emission ETV
vector 658 RSUExampleScenario.node[131].veinsmobility acceleration ETV
vector 659 RSUExampleScenario.node[131].veinsmobility co2emission ETV
639	414157 548 609 629 608 628 21 0.973 4.3992722765223 45.008420032723 120.78054554995
638	414705 639 609 629 608 628 21 -1.0909373024013 0.88551437493879 -0.066692322678865 6.1782509820868
635	415344 636 608 629 607 628 22 10.801594206879 11.966342096242 251.70264231716 2882.5036222914
633	415980 665 607 629 606 628 23 67.832803685576 69.374842061362 1580.1580074754 108570.19012933
632	416645 664 607 629 606 628 23 30.099491829414 270.02043435709 3327.8088871738 610774.3738802
637	417309 574 609 631 608 630 23 0.973 11.085772453292 76.754659185757 454.68897280834
636	417883 674 609 631 608 630 23 -4.5 2.5612582318718 -1.0632526494811 99.263295609975
634	418557 698 608 631 607 630 24 0.18927861256403 15.217670235286 245.78073422222 3083.430504758
631	419255 720 607 631 606 630 25 28.571856717077 69.373560938545 1510.3063378009 95550.962019665
630	419975 723 607 631 606 630 25 48.407796666299 271.192659662 3725.9552719213 655329.88189319
649	420698 451 619 635 618 634 17 0.973 5.6874811502088 44.807365057611 153.56835807477
648	421149 520 619 635 618 634 17 -1.1396637649275 1.0312679137802 0.81709914505482 5.9710249909329
645	421669 519 618 635 617 634 18 13.368603580477 14.587567758243 254.03604877524 3588.0368339718
643	422188 549 617 635 616 634 19 67.857706077639 69.37624435686 1305.09372724 89653.699459221
642	422737 551 617 635 616 634 19 30.099491829414 269.54687686814 2725.6365241179 501629.52952969
vector 660 RSUExampleScenario.node[132].veinsmobility posx ETV
vector 661 RSUExampleScenario.node[132].veinsmobility posy ETV
vector 662 RSUExampleScenario.node[133].veinsmobility posx ETV
vector 663 RSUExampleScenario.node[133].veinsmobility posy ETV
vector 664 RSUExampleScenario.node[132].veinsmobility speed ETV
vector 665 RSUExampleScenario.node[133].veinsmobility speed ETV
vector 666 RSUExampleScenario.node[132].veinsmobility acceleration ETV
vector 667 RSUExampleScenario.node[132].veinsmobility co2emission ETV
vector 668 RSUExampleScenario.node[133].veinsmobility acceleration ETV
vector 669 RSUExampleScenario.node[133].veinsmobility co2emission ETV
647	423960 529 619 639 618 638 21 0.973 10.217782589155 64.349586126248 345.95765177067
646	424489 615 619 639 618 638 21 -4.5 2.4459850604879 -0.46748646292835 84.354314027967
644	425104 639 618 639 617 638 22 0.40832056618089 15.093856539537 236.36782527622 3052.0793962806
641	425743 667 617 639 616 638 23 28.571856717077 69.378218763597 1372.7759306464 86177.575827377
640	426410 662 617 639 616 638 23 48.407796666299 261.4100749137 3277.0923009022 548446.77045411
659	427072 392 628 643 627 642 16 0.973 6.7656211249536 40.489594645708 152.8294970775
658	427464 484 628 643 627 642 16 -0.83632892386522 1.2716795162065 0.45054118561093 5.5214983801604
655	427948 490 627 643 626 642 17 13.783726407649 15.055405923856 245.82215386147 3556.6819068642
653	428438 519 626 643 625 642 18 67.847354135527 69.372163968792 1236.2697933094 84916.28827924
652	428957 519 626 643 625 642 18 30.099491829414 260.90250755336 2503.7732706646 445506.42274541
vector 670 RSUExampleScenario.node[134].veinsmobility posx ETV
vector 671 RSUExampleScenario.node[134].veinsmobility posy ETV
vector 672 RSUExampleScenario.node[135].veinsmobility posx ETV
vector 673 RSUExampleScenario.node[135].veinsmobility posy ETV
657	429732 491 628 646 627 645 19 0.973 8.0171782924177 55.807794433897 252.42263681933
656	430223 573 628 646 627 645 19 -3.855263971381 2.4212828865275 -1.1624956381042 45.035453159697
654	430796 579 627 646 626 645 20 6.261236216451 13.664468863214 243.00620956899 3024.3379376981
651	431375 608 626 646 625 645 21 28.571856717077 69.37726845474 1236.7344825466 77172.242227722
650	431983 603 626 646 625 645 21 48.407796666299 270.16424760884 3158.6956510141 572781.25420158
vector 674 RSUExampleScenario.node[134].veinsmobility speed ETV
vector 675 RSUExampleScenario.node[135].veinsmobility speed ETV
vector 676 RSUExampleScenario.node[134].veinsmobility acceleration ETV
vector 677 RSUExampleScenario.node[134].veinsmobility co2emission ETV
vector 678 RSUExampleScenario.node[135].veinsmobility acceleration ETV
vector 679 RSUExampleScenario.node[135].veinsmobility co2emission ETV
669	433002 347 638 650 637 649 13 0.973 7.6181198284152 38.720407451483 164.68966694424
668	433349 397 638 650 637 649 13 -1.0371752646985 1.1626070842147 -0.31404473122675 5.0560272548517
665	433746 404 637 650 636 649 14 16.971509329069 18.21018485986 246.05420668918 4327.243641554
663	434150 431 636 650 635 649 15 67.842767147954 69.361903732629 1030.3210240118 70776.90984289
662	434581 432 636 650 635 649 15 30.099491829414 259.07269736011 2057.6632201602 365602.98941014
vector 680 RSUExampleScenario.node[136].veinsmobility posx ETV
vector 681 RSUExampleScenario.node[136].veinsmobility posy ETV
vector 682 RSUExampleScenario.node[137].veinsmobility posx ETV
vector 683 RSUExampleScenario.node[137].veinsmobility posy ETV
vector 684 RSUExampleScenario.node[136].veinsmobility speed ETV
vector 685 RSUExampleScenario.node[137].veinsmobility speed ETV
vector 686 RSUExampleScenario.node[136].veinsmobility acceleration ETV
vector 687 RSUExampleScenario.node[136].veinsmobility co2emission ETV
vector 688 RSUExampleScenario.node[137].veinsmobility acceleration ETV
vector 689 RSUExampleScenario.node[137].veinsmobility co2emission ETV
667	435685 526 638 658 637 657 21 0.973 7.884925469049 55.535589998318 227.72788695601
666	436211 635 638 658 637 657 21 -4.4081719540502 2.4189407535829 -0.5827754060505 51.3446237611
664	436846 635 637 658 636 657 22 4.1570940477337 12.279330664644 239.46721181097 2711.5595164165
661	437481 664 636 658 635 657 23 28.571856717077 69.368934037438 1357.3122412267 84726.853391176
660	438145 666 636 658 635 657 23 48.407796666299 267.36830558882 3419.4918530674 609372.87985283
670	438811 463 646 661 645 660 16 48.407796666299 144.39601953274 1659.9064179838 188033.77899741
671	439274 463 646 661 645 660 16 28.571856717077 69.373964516569 859.54574555576 49393.509775549
672	439737 464 646 661 645 660 16 30.099491829414 205.71288942546 1802.6555015882 254312.27874858
673	440201 463 646 661 645 660 16 67.843642546325 69.375991947595 1096.3428398804 75129.530421786
674	440664 436 647 661 646 660 15 0.26854986286388 12.770957174796 114.22235289294 1160.5622722525
675	441100 433 647 661 646 660 15 12.0981173787 13.134171204614 188.85706063007 2379.3893926729
676	441533 419 648 661 647 660 14 -3.9196136221406 2.2484904000303 -2.6853727382653 58.976563747282
677	441952 346 648 661 647 660 14 0.973 5.5594567985239 33.381841481715 114.44885374867
678	442298 429 648 661 647 660 14 -0.99358103058767 0.86148076474201 0.19748424645513 3.4311766234847
679	442727 345 648 661 647 660 14 0.973 4.6797733938827 29.65538854238 87.505502582648
680	443072 202 655 661 654 660 7 48.407796666299 113.74335808818 540.58654109283 45773.568412071
681	443274 203 655 661 654 660 7 28.571856717077 58.463788132356 292.29818686318 13048.155017582
682	443477 201 655 661 654 660 7 30.099491829414 95.60752146757 407.27901695431 27626.957290074
683	443678 203 655 661 654 660 7 67.917807851676 68.133230370666 476.28615270957 32406.970969675
684	443881 172 656 661 655 660 6 8.702258856644 15.247872648882 80.549169626348 1115.1956460241
685	444053 172 656 661 655 660 6 12.520783798603 13.31583357474 78.03534139188 1015.2973628139
686	444225 150 657 661 656 660 5 -3.3179590588683 0.2479170599021 -6.2976967323362 19.826306254374
687	444375 114 657 661 656 660 5 0.973 3.0840792689726 9.0159404715016 21.429064563011
688	444489 152 657 661 656 660 5 -0.49013716920745 0.32367234695703 -0.47137742917985 0.56378642937367
689	444641 125 657 661 656 660 5 0.973 3.0091689840371 8.9797875255907 20.102165136703

